MODEL 1
REMARK VINA RESULT:    -6.320      0.000      0.000
REMARK INTER + INTRA:         -15.839
REMARK INTER:                 -11.492
REMARK INTRA:                  -4.347
REMARK UNBOUND:                -4.347
REMARK  Name = cpd76.pdb
REMARK  17 active torsions:
REMARK  status: ('A' for Active; 'I' for Inactive)
REMARK    1  A    between atoms: C_1  and  O_2
REMARK    2  A    between atoms: O_2  and  C_3
REMARK    3  A    between atoms: C_5  and  C_6
REMARK    4  A    between atoms: C_6  and  C_7
REMARK    5  A    between atoms: C_7  and  C_8
REMARK    6  A    between atoms: N_10  and  C_11
REMARK    7  A    between atoms: C_11  and  C_12
REMARK    8  A    between atoms: C_12  and  C_13
REMARK    9  A    between atoms: C_13  and  C_14
REMARK   10  A    between atoms: C_14  and  C_15
REMARK   11  A    between atoms: C_15  and  C_16
REMARK   12  A    between atoms: N_18  and  N_19
REMARK   13  A    between atoms: N_19  and  C_20
REMARK   14  A    between atoms: C_35  and  O_36
REMARK   15  A    between atoms: O_36  and  C_37
REMARK   16  A    between atoms: C_38  and  O_39
REMARK   17  A    between atoms: O_39  and  C_40
REMARK                            x       y       z     vdW  Elec       q    Type
REMARK                         _______ _______ _______ _____ _____    ______ ____
ROOT
ATOM      1  C   UNL A   1      32.757 -36.498 -33.161  0.00  0.00    -0.045 C 
ENDROOT
BRANCH   1   2
ATOM      2  C   UNL A   1      32.343 -37.921 -32.769  0.00  0.00    -0.051 C 
BRANCH   2   3
ATOM      3  C   UNL A   1      31.818 -38.698 -33.977  0.00  0.00    -0.037 C 
BRANCH   3   4
ATOM      4  C   UNL A   1      32.526 -40.042 -34.137  0.00  0.00    +0.012 C 
BRANCH   4   7
ATOM      5  C   UNL A   1      34.247 -41.059 -32.695  0.00  0.00    +0.213 C 
ATOM      6  O   UNL A   1      33.603 -42.089 -32.526  0.00  0.00    -0.276 OA
ATOM      7  N   UNL A   1      33.832 -40.028 -33.507  0.00  0.00    -0.315 N 
ATOM      8  H   UNL A   1      34.434 -39.264 -33.663  0.00  0.00    +0.000 HD
BRANCH   5   9
ATOM      9  C   UNL A   1      35.572 -40.824 -32.003  0.00  0.00    +0.028 C 
BRANCH   9  10
ATOM     10  C   UNL A   1      35.486 -39.625 -31.061  0.00  0.00    -0.019 C 
BRANCH  10  13
ATOM     11  C   UNL A   1      34.328 -41.020 -27.699  0.00  0.00    +0.165 A 
ATOM     12  C   UNL A   1      35.114 -40.757 -28.825  0.00  0.00    -0.013 A 
ATOM     13  C   UNL A   1      34.645 -39.908 -29.840  0.00  0.00    -0.040 A 
ATOM     14  C   UNL A   1      33.377 -39.318 -29.718  0.00  0.00    -0.013 A 
ATOM     15  C   UNL A   1      32.577 -39.560 -28.599  0.00  0.00    +0.165 A 
ATOM     16  C   UNL A   1      33.056 -40.428 -27.603  0.00  0.00    +0.204 A 
BRANCH  11  18
ATOM     17  C   UNL A   1      34.689 -43.241 -26.899  0.00  0.00    +0.079 C 
ATOM     18  O   UNL A   1      34.692 -41.841 -26.663  0.00  0.00    -0.491 OA
ENDBRANCH  11  18
BRANCH  15  19
ATOM     19  O   UNL A   1      31.340 -39.009 -28.389  0.00  0.00    -0.491 OA
ATOM     20  C   UNL A   1      30.868 -38.069 -29.344  0.00  0.00    +0.079 C 
ENDBRANCH  15  19
BRANCH  16  21
ATOM     21  O   UNL A   1      32.310 -40.660 -26.467  0.00  0.00    -0.488 OA
ATOM     22  C   UNL A   1      31.352 -41.687 -26.710  0.00  0.00    +0.079 C 
ENDBRANCH  16  21
ENDBRANCH  10  13
ENDBRANCH   9  10
ENDBRANCH   5   9
ENDBRANCH   4   7
ENDBRANCH   3   4
ENDBRANCH   2   3
ENDBRANCH   1   2
BRANCH   1  23
ATOM     23  C   UNL A   1      31.932 -35.438 -32.435  0.00  0.00    +0.025 C 
BRANCH  23  24
ATOM     24  C   UNL A   1      32.740 -34.682 -31.401  0.00  0.00    +0.229 C 
ATOM     25  O   UNL A   1      32.893 -33.462 -31.417  0.00  0.00    -0.274 OA
ATOM     26  N   UNL A   1      33.239 -35.488 -30.394  0.00  0.00    -0.236 N 
ATOM     27  H   UNL A   1      32.957 -36.426 -30.295  0.00  0.00    +0.000 HD
BRANCH  26  28
ATOM     28  N   UNL A   1      34.176 -34.898 -29.510  0.00  0.00    -0.264 N 
ATOM     29  H   UNL A   1      34.330 -33.931 -29.412  0.00  0.00    +0.000 HD
BRANCH  28  30
ATOM     30  C   UNL A   1      34.863 -35.918 -28.781  0.00  0.00    +0.058 A 
ATOM     31  C   UNL A   1      34.273 -36.396 -27.593  0.00  0.00    -0.003 A 
ATOM     32  C   UNL A   1      34.993 -37.317 -26.835  0.00  0.00    +0.047 A 
ATOM     33  N   UNL A   1      36.209 -37.783 -27.205  0.00  0.00    -0.251 NA
ATOM     34  C   UNL A   1      36.770 -37.328 -28.333  0.00  0.00    +0.073 A 
ATOM     35  C   UNL A   1      38.023 -37.817 -28.676  0.00  0.00    -0.036 A 
ATOM     36  C   UNL A   1      38.697 -37.392 -29.822  0.00  0.00    -0.060 A 
ATOM     37  C   UNL A   1      38.108 -36.450 -30.651  0.00  0.00    -0.061 A 
ATOM     38  C   UNL A   1      36.848 -35.944 -30.329  0.00  0.00    -0.051 A 
ATOM     39  C   UNL A   1      36.152 -36.377 -29.171  0.00  0.00    +0.023 A 
ATOM     40  C   UNL A   1      34.433 -37.911 -25.568  0.00  0.00    -0.010 C 
ATOM     41  C   UNL A   1      33.300 -37.087 -24.966  0.00  0.00    -0.047 C 
ATOM     42  C   UNL A   1      32.281 -36.745 -26.044  0.00  0.00    -0.049 C 
ATOM     43  C   UNL A   1      32.926 -35.890 -27.134  0.00  0.00    -0.024 C 
ENDBRANCH  28  30
ENDBRANCH  26  28
ENDBRANCH  23  24
ENDBRANCH   1  23
TORSDOF 14
ENDMDL
MODEL 2
REMARK VINA RESULT:    -5.920     18.844     22.511
REMARK INTER + INTRA:         -15.113
REMARK INTER:                 -12.267
REMARK INTRA:                  -2.846
REMARK UNBOUND:                -4.347
REMARK  Name = cpd76.pdb
REMARK  17 active torsions:
REMARK  status: ('A' for Active; 'I' for Inactive)
REMARK    1  A    between atoms: C_1  and  O_2
REMARK    2  A    between atoms: O_2  and  C_3
REMARK    3  A    between atoms: C_5  and  C_6
REMARK    4  A    between atoms: C_6  and  C_7
REMARK    5  A    between atoms: C_7  and  C_8
REMARK    6  A    between atoms: N_10  and  C_11
REMARK    7  A    between atoms: C_11  and  C_12
REMARK    8  A    between atoms: C_12  and  C_13
REMARK    9  A    between atoms: C_13  and  C_14
REMARK   10  A    between atoms: C_14  and  C_15
REMARK   11  A    between atoms: C_15  and  C_16
REMARK   12  A    between atoms: N_18  and  N_19
REMARK   13  A    between atoms: N_19  and  C_20
REMARK   14  A    between atoms: C_35  and  O_36
REMARK   15  A    between atoms: O_36  and  C_37
REMARK   16  A    between atoms: C_38  and  O_39
REMARK   17  A    between atoms: O_39  and  C_40
REMARK                            x       y       z     vdW  Elec       q    Type
REMARK                         _______ _______ _______ _____ _____    ______ ____
ROOT
ATOM      1  C   UNL A   1      41.727 -20.667 -39.736  0.00  0.00    -0.045 C 
ENDROOT
BRANCH   1   2
ATOM      2  C   UNL A   1      42.467 -21.889 -40.294  0.00  0.00    -0.051 C 
BRANCH   2   3
ATOM      3  C   UNL A   1      42.635 -21.788 -41.811  0.00  0.00    -0.037 C 
BRANCH   3   4
ATOM      4  C   UNL A   1      43.948 -21.105 -42.190  0.00  0.00    +0.012 C 
BRANCH   4   7
ATOM      5  C   UNL A   1      46.191 -20.689 -41.257  0.00  0.00    +0.213 C 
ATOM      6  O   UNL A   1      46.540 -19.999 -42.210  0.00  0.00    -0.276 OA
ATOM      7  N   UNL A   1      44.930 -21.226 -41.130  0.00  0.00    -0.315 N 
ATOM      8  H   UNL A   1      44.689 -21.702 -40.302  0.00  0.00    +0.000 HD
BRANCH   5   9
ATOM      9  C   UNL A   1      47.137 -21.025 -40.126  0.00  0.00    +0.028 C 
BRANCH   9  10
ATOM     10  C   UNL A   1      46.375 -21.194 -38.814  0.00  0.00    -0.019 C 
BRANCH  10  13
ATOM     11  C   UNL A   1      44.859 -17.968 -37.441  0.00  0.00    +0.165 A 
ATOM     12  C   UNL A   1      45.004 -19.177 -38.128  0.00  0.00    -0.013 A 
ATOM     13  C   UNL A   1      46.210 -19.892 -38.068  0.00  0.00    -0.040 A 
ATOM     14  C   UNL A   1      47.277 -19.387 -37.308  0.00  0.00    -0.013 A 
ATOM     15  C   UNL A   1      47.154 -18.185 -36.607  0.00  0.00    +0.165 A 
ATOM     16  C   UNL A   1      45.944 -17.475 -36.695  0.00  0.00    +0.204 A 
BRANCH  11  18
ATOM     17  C   UNL A   1      42.625 -17.629 -36.667  0.00  0.00    +0.079 C 
ATOM     18  O   UNL A   1      43.728 -17.192 -37.447  0.00  0.00    -0.491 OA
ENDBRANCH  11  18
BRANCH  15  19
ATOM     19  O   UNL A   1      48.134 -17.632 -35.825  0.00  0.00    -0.491 OA
ATOM     20  C   UNL A   1      48.551 -18.362 -34.679  0.00  0.00    +0.079 C 
ENDBRANCH  15  19
BRANCH  16  21
ATOM     21  O   UNL A   1      45.774 -16.305 -35.986  0.00  0.00    -0.488 OA
ATOM     22  C   UNL A   1      46.210 -15.191 -36.762  0.00  0.00    +0.079 C 
ENDBRANCH  16  21
ENDBRANCH  10  13
ENDBRANCH   9  10
ENDBRANCH   5   9
ENDBRANCH   4   7
ENDBRANCH   3   4
ENDBRANCH   2   3
ENDBRANCH   1   2
BRANCH   1  23
ATOM     23  C   UNL A   1      40.427 -21.054 -39.033  0.00  0.00    +0.025 C 
BRANCH  23  24
ATOM     24  C   UNL A   1      40.662 -21.943 -37.829  0.00  0.00    +0.229 C 
ATOM     25  O   UNL A   1      40.186 -23.071 -37.714  0.00  0.00    -0.274 OA
ATOM     26  N   UNL A   1      41.521 -21.392 -36.895  0.00  0.00    -0.236 N 
ATOM     27  H   UNL A   1      42.035 -20.574 -37.085  0.00  0.00    +0.000 HD
BRANCH  26  28
ATOM     28  N   UNL A   1      41.626 -22.061 -35.651  0.00  0.00    -0.264 N 
ATOM     29  H   UNL A   1      41.794 -23.025 -35.539  0.00  0.00    +0.000 HD
BRANCH  28  30
ATOM     30  C   UNL A   1      41.452 -21.128 -34.583  0.00  0.00    +0.058 A 
ATOM     31  C   UNL A   1      40.157 -20.963 -34.050  0.00  0.00    -0.003 A 
ATOM     32  C   UNL A   1      39.974 -19.982 -33.078  0.00  0.00    +0.047 A 
ATOM     33  N   UNL A   1      40.983 -19.209 -32.615  0.00  0.00    -0.251 NA
ATOM     34  C   UNL A   1      42.214 -19.365 -33.122  0.00  0.00    +0.073 A 
ATOM     35  C   UNL A   1      43.224 -18.546 -32.633  0.00  0.00    -0.036 A 
ATOM     36  C   UNL A   1      44.534 -18.619 -33.109  0.00  0.00    -0.060 A 
ATOM     37  C   UNL A   1      44.848 -19.532 -34.104  0.00  0.00    -0.061 A 
ATOM     38  C   UNL A   1      43.851 -20.366 -34.611  0.00  0.00    -0.051 A 
ATOM     39  C   UNL A   1      42.520 -20.305 -34.126  0.00  0.00    +0.023 A 
ATOM     40  C   UNL A   1      38.635 -19.754 -32.424  0.00  0.00    -0.010 C 
ATOM     41  C   UNL A   1      37.468 -20.312 -33.232  0.00  0.00    -0.047 C 
ATOM     42  C   UNL A   1      37.766 -21.746 -33.647  0.00  0.00    -0.049 C 
ATOM     43  C   UNL A   1      38.998 -21.793 -34.551  0.00  0.00    -0.024 C 
ENDBRANCH  28  30
ENDBRANCH  26  28
ENDBRANCH  23  24
ENDBRANCH   1  23
TORSDOF 14
ENDMDL
MODEL 3
REMARK VINA RESULT:    -5.858     19.001     22.934
REMARK INTER + INTRA:         -15.000
REMARK INTER:                 -12.210
REMARK INTRA:                  -2.790
REMARK UNBOUND:                -4.347
REMARK  Name = cpd76.pdb
REMARK  17 active torsions:
REMARK  status: ('A' for Active; 'I' for Inactive)
REMARK    1  A    between atoms: C_1  and  O_2
REMARK    2  A    between atoms: O_2  and  C_3
REMARK    3  A    between atoms: C_5  and  C_6
REMARK    4  A    between atoms: C_6  and  C_7
REMARK    5  A    between atoms: C_7  and  C_8
REMARK    6  A    between atoms: N_10  and  C_11
REMARK    7  A    between atoms: C_11  and  C_12
REMARK    8  A    between atoms: C_12  and  C_13
REMARK    9  A    between atoms: C_13  and  C_14
REMARK   10  A    between atoms: C_14  and  C_15
REMARK   11  A    between atoms: C_15  and  C_16
REMARK   12  A    between atoms: N_18  and  N_19
REMARK   13  A    between atoms: N_19  and  C_20
REMARK   14  A    between atoms: C_35  and  O_36
REMARK   15  A    between atoms: O_36  and  C_37
REMARK   16  A    between atoms: C_38  and  O_39
REMARK   17  A    between atoms: O_39  and  C_40
REMARK                            x       y       z     vdW  Elec       q    Type
REMARK                         _______ _______ _______ _____ _____    ______ ____
ROOT
ATOM      1  C   UNL A   1      43.590 -19.890 -35.529  0.00  0.00    -0.045 C 
ENDROOT
BRANCH   1   2
ATOM      2  C   UNL A   1      42.243 -20.045 -34.813  0.00  0.00    -0.051 C 
BRANCH   2   3
ATOM      3  C   UNL A   1      42.434 -20.533 -33.376  0.00  0.00    -0.037 C 
BRANCH   3   4
ATOM      4  C   UNL A   1      41.107 -20.945 -32.738  0.00  0.00    +0.012 C 
BRANCH   4   7
ATOM      5  C   UNL A   1      39.866 -22.616 -34.059  0.00  0.00    +0.213 C 
ATOM      6  O   UNL A   1      40.357 -23.565 -33.457  0.00  0.00    -0.276 OA
ATOM      7  N   UNL A   1      40.127 -21.301 -33.745  0.00  0.00    -0.315 N 
ATOM      8  H   UNL A   1      39.638 -20.587 -34.214  0.00  0.00    +0.000 HD
BRANCH   5   9
ATOM      9  C   UNL A   1      38.925 -22.811 -35.226  0.00  0.00    +0.028 C 
BRANCH   9  10
ATOM     10  C   UNL A   1      39.691 -23.242 -36.475  0.00  0.00    -0.019 C 
BRANCH  10  13
ATOM     11  C   UNL A   1      40.055 -19.754 -37.990  0.00  0.00    +0.165 A 
ATOM     12  C   UNL A   1      39.557 -20.836 -37.257  0.00  0.00    -0.013 A 
ATOM     13  C   UNL A   1      40.228 -22.068 -37.258  0.00  0.00    -0.040 A 
ATOM     14  C   UNL A   1      41.413 -22.211 -37.998  0.00  0.00    -0.013 A 
ATOM     15  C   UNL A   1      41.934 -21.142 -38.732  0.00  0.00    +0.165 A 
ATOM     16  C   UNL A   1      41.237 -19.922 -38.734  0.00  0.00    +0.204 A 
BRANCH  11  18
ATOM     17  C   UNL A   1      39.254 -17.817 -36.846  0.00  0.00    +0.079 C 
ATOM     18  O   UNL A   1      39.467 -18.517 -38.062  0.00  0.00    -0.491 OA
ENDBRANCH  11  18
BRANCH  15  19
ATOM     19  O   UNL A   1      43.093 -21.188 -39.462  0.00  0.00    -0.491 OA
ATOM     20  C   UNL A   1      43.002 -21.618 -40.814  0.00  0.00    +0.079 C 
ENDBRANCH  15  19
BRANCH  16  21
ATOM     21  O   UNL A   1      41.742 -18.836 -39.416  0.00  0.00    -0.488 OA
ATOM     22  C   UNL A   1      42.697 -18.151 -38.609  0.00  0.00    +0.079 C 
ENDBRANCH  16  21
ENDBRANCH  10  13
ENDBRANCH   9  10
ENDBRANCH   5   9
ENDBRANCH   4   7
ENDBRANCH   3   4
ENDBRANCH   2   3
ENDBRANCH   1   2
BRANCH   1  23
ATOM     23  C   UNL A   1      44.771 -20.021 -34.569  0.00  0.00    +0.025 C 
BRANCH  23  24
ATOM     24  C   UNL A   1      46.092 -20.180 -35.294  0.00  0.00    +0.229 C 
ATOM     25  O   UNL A   1      47.175 -20.268 -34.719  0.00  0.00    -0.274 OA
ATOM     26  N   UNL A   1      45.959 -20.285 -36.667  0.00  0.00    -0.236 N 
ATOM     27  H   UNL A   1      45.079 -20.396 -37.093  0.00  0.00    +0.000 HD
BRANCH  26  28
ATOM     28  N   UNL A   1      47.151 -20.223 -37.429  0.00  0.00    -0.264 N 
ATOM     29  H   UNL A   1      48.049 -20.451 -37.095  0.00  0.00    +0.000 HD
BRANCH  28  30
ATOM     30  C   UNL A   1      46.855 -19.782 -38.756  0.00  0.00    +0.058 A 
ATOM     31  C   UNL A   1      46.644 -18.403 -38.965  0.00  0.00    -0.003 A 
ATOM     32  C   UNL A   1      46.259 -17.991 -40.239  0.00  0.00    +0.047 A 
ATOM     33  N   UNL A   1      46.106 -18.849 -41.274  0.00  0.00    -0.251 NA
ATOM     34  C   UNL A   1      46.304 -20.159 -41.075  0.00  0.00    +0.073 A 
ATOM     35  C   UNL A   1      46.126 -21.012 -42.156  0.00  0.00    -0.036 A 
ATOM     36  C   UNL A   1      46.293 -22.394 -42.045  0.00  0.00    -0.060 A 
ATOM     37  C   UNL A   1      46.644 -22.943 -40.822  0.00  0.00    -0.061 A 
ATOM     38  C   UNL A   1      46.830 -22.107 -39.722  0.00  0.00    -0.051 A 
ATOM     39  C   UNL A   1      46.672 -20.701 -39.827  0.00  0.00    +0.023 A 
ATOM     40  C   UNL A   1      46.043 -16.537 -40.569  0.00  0.00    -0.010 C 
ATOM     41  C   UNL A   1      45.808 -15.668 -39.338  0.00  0.00    -0.047 C 
ATOM     42  C   UNL A   1      46.873 -15.958 -38.291  0.00  0.00    -0.049 C 
ATOM     43  C   UNL A   1      46.788 -17.414 -37.833  0.00  0.00    -0.024 C 
ENDBRANCH  28  30
ENDBRANCH  26  28
ENDBRANCH  23  24
ENDBRANCH   1  23
TORSDOF 14
ENDMDL
MODEL 4
REMARK VINA RESULT:    -5.820     19.217     23.050
REMARK INTER + INTRA:         -14.930
REMARK INTER:                 -12.664
REMARK INTRA:                  -2.265
REMARK UNBOUND:                -4.347
REMARK  Name = cpd76.pdb
REMARK  17 active torsions:
REMARK  status: ('A' for Active; 'I' for Inactive)
REMARK    1  A    between atoms: C_1  and  O_2
REMARK    2  A    between atoms: O_2  and  C_3
REMARK    3  A    between atoms: C_5  and  C_6
REMARK    4  A    between atoms: C_6  and  C_7
REMARK    5  A    between atoms: C_7  and  C_8
REMARK    6  A    between atoms: N_10  and  C_11
REMARK    7  A    between atoms: C_11  and  C_12
REMARK    8  A    between atoms: C_12  and  C_13
REMARK    9  A    between atoms: C_13  and  C_14
REMARK   10  A    between atoms: C_14  and  C_15
REMARK   11  A    between atoms: C_15  and  C_16
REMARK   12  A    between atoms: N_18  and  N_19
REMARK   13  A    between atoms: N_19  and  C_20
REMARK   14  A    between atoms: C_35  and  O_36
REMARK   15  A    between atoms: O_36  and  C_37
REMARK   16  A    between atoms: C_38  and  O_39
REMARK   17  A    between atoms: O_39  and  C_40
REMARK                            x       y       z     vdW  Elec       q    Type
REMARK                         _______ _______ _______ _____ _____    ______ ____
ROOT
ATOM      1  C   UNL A   1      46.678 -16.939 -36.967  0.00  0.00    -0.045 C 
ENDROOT
BRANCH   1   2
ATOM      2  C   UNL A   1      47.761 -17.500 -36.037  0.00  0.00    -0.051 C 
BRANCH   2   3
ATOM      3  C   UNL A   1      47.162 -17.968 -34.711  0.00  0.00    -0.037 C 
BRANCH   3   4
ATOM      4  C   UNL A   1      46.848 -19.463 -34.729  0.00  0.00    +0.012 C 
BRANCH   4   7
ATOM      5  C   UNL A   1      44.765 -20.041 -35.912  0.00  0.00    +0.213 C 
ATOM      6  O   UNL A   1      45.341 -20.260 -36.973  0.00  0.00    -0.276 OA
ATOM      7  N   UNL A   1      45.419 -19.701 -34.749  0.00  0.00    -0.315 N 
ATOM      8  H   UNL A   1      44.904 -19.619 -33.913  0.00  0.00    +0.000 HD
BRANCH   5   9
ATOM      9  C   UNL A   1      43.259 -20.113 -35.791  0.00  0.00    +0.028 C 
BRANCH   9  10
ATOM     10  C   UNL A   1      42.785 -19.447 -34.502  0.00  0.00    -0.019 C 
BRANCH  10  13
ATOM     11  C   UNL A   1      39.092 -20.149 -33.824  0.00  0.00    +0.165 A 
ATOM     12  C   UNL A   1      40.261 -19.574 -34.333  0.00  0.00    -0.013 A 
ATOM     13  C   UNL A   1      41.520 -20.068 -33.961  0.00  0.00    -0.040 A 
ATOM     14  C   UNL A   1      41.604 -21.151 -33.071  0.00  0.00    -0.013 A 
ATOM     15  C   UNL A   1      40.451 -21.746 -32.554  0.00  0.00    +0.165 A 
ATOM     16  C   UNL A   1      39.199 -21.225 -32.924  0.00  0.00    +0.204 A 
BRANCH  11  18
ATOM     17  C   UNL A   1      37.397 -19.808 -35.470  0.00  0.00    +0.079 C 
ATOM     18  O   UNL A   1      37.820 -19.732 -34.117  0.00  0.00    -0.491 OA
ENDBRANCH  11  18
BRANCH  15  19
ATOM     19  O   UNL A   1      40.440 -22.818 -31.700  0.00  0.00    -0.491 OA
ATOM     20  C   UNL A   1      41.242 -23.940 -32.043  0.00  0.00    +0.079 C 
ENDBRANCH  15  19
BRANCH  16  21
ATOM     21  O   UNL A   1      38.040 -21.812 -32.464  0.00  0.00    -0.488 OA
ATOM     22  C   UNL A   1      37.649 -22.875 -33.330  0.00  0.00    +0.079 C 
ENDBRANCH  16  21
ENDBRANCH  10  13
ENDBRANCH   9  10
ENDBRANCH   5   9
ENDBRANCH   4   7
ENDBRANCH   3   4
ENDBRANCH   2   3
ENDBRANCH   1   2
BRANCH   1  23
ATOM     23  C   UNL A   1      47.255 -15.990 -38.016  0.00  0.00    +0.025 C 
BRANCH  23  24
ATOM     24  C   UNL A   1      46.859 -16.376 -39.427  0.00  0.00    +0.229 C 
ATOM     25  O   UNL A   1      46.349 -15.594 -40.226  0.00  0.00    -0.274 OA
ATOM     26  N   UNL A   1      47.189 -17.678 -39.756  0.00  0.00    -0.236 N 
ATOM     27  H   UNL A   1      47.758 -18.230 -39.172  0.00  0.00    +0.000 HD
BRANCH  26  28
ATOM     28  N   UNL A   1      46.667 -18.181 -40.973  0.00  0.00    -0.264 N 
ATOM     29  H   UNL A   1      46.747 -17.737 -41.849  0.00  0.00    +0.000 HD
BRANCH  28  30
ATOM     30  C   UNL A   1      46.009 -19.427 -40.740  0.00  0.00    +0.058 A 
ATOM     31  C   UNL A   1      46.689 -20.612 -41.091  0.00  0.00    -0.003 A 
ATOM     32  C   UNL A   1      46.005 -21.818 -40.955  0.00  0.00    +0.047 A 
ATOM     33  N   UNL A   1      44.739 -21.896 -40.482  0.00  0.00    -0.251 NA
ATOM     34  C   UNL A   1      44.093 -20.770 -40.150  0.00  0.00    +0.073 A 
ATOM     35  C   UNL A   1      42.791 -20.886 -39.680  0.00  0.00    -0.036 A 
ATOM     36  C   UNL A   1      42.030 -19.772 -39.325  0.00  0.00    -0.060 A 
ATOM     37  C   UNL A   1      42.578 -18.504 -39.443  0.00  0.00    -0.061 A 
ATOM     38  C   UNL A   1      43.884 -18.362 -39.912  0.00  0.00    -0.051 A 
ATOM     39  C   UNL A   1      44.669 -19.490 -40.266  0.00  0.00    +0.023 A 
ATOM     40  C   UNL A   1      46.657 -23.139 -41.272  0.00  0.00    -0.010 C 
ATOM     41  C   UNL A   1      47.879 -23.006 -42.175  0.00  0.00    -0.047 C 
ATOM     42  C   UNL A   1      48.803 -21.924 -41.636  0.00  0.00    -0.049 C 
ATOM     43  C   UNL A   1      48.096 -20.569 -41.640  0.00  0.00    -0.024 C 
ENDBRANCH  28  30
ENDBRANCH  26  28
ENDBRANCH  23  24
ENDBRANCH   1  23
TORSDOF 14
ENDMDL
MODEL 5
REMARK VINA RESULT:    -5.673     18.980     22.715
REMARK INTER + INTRA:         -14.664
REMARK INTER:                 -12.962
REMARK INTRA:                  -1.702
REMARK UNBOUND:                -4.347
REMARK  Name = cpd76.pdb
REMARK  17 active torsions:
REMARK  status: ('A' for Active; 'I' for Inactive)
REMARK    1  A    between atoms: C_1  and  O_2
REMARK    2  A    between atoms: O_2  and  C_3
REMARK    3  A    between atoms: C_5  and  C_6
REMARK    4  A    between atoms: C_6  and  C_7
REMARK    5  A    between atoms: C_7  and  C_8
REMARK    6  A    between atoms: N_10  and  C_11
REMARK    7  A    between atoms: C_11  and  C_12
REMARK    8  A    between atoms: C_12  and  C_13
REMARK    9  A    between atoms: C_13  and  C_14
REMARK   10  A    between atoms: C_14  and  C_15
REMARK   11  A    between atoms: C_15  and  C_16
REMARK   12  A    between atoms: N_18  and  N_19
REMARK   13  A    between atoms: N_19  and  C_20
REMARK   14  A    between atoms: C_35  and  O_36
REMARK   15  A    between atoms: O_36  and  C_37
REMARK   16  A    between atoms: C_38  and  O_39
REMARK   17  A    between atoms: O_39  and  C_40
REMARK                            x       y       z     vdW  Elec       q    Type
REMARK                         _______ _______ _______ _____ _____    ______ ____
ROOT
ATOM      1  C   UNL A   1      43.380 -19.897 -36.061  0.00  0.00    -0.045 C 
ENDROOT
BRANCH   1   2
ATOM      2  C   UNL A   1      42.185 -20.841 -35.882  0.00  0.00    -0.051 C 
BRANCH   2   3
ATOM      3  C   UNL A   1      41.676 -21.351 -37.231  0.00  0.00    -0.037 C 
BRANCH   3   4
ATOM      4  C   UNL A   1      40.280 -21.961 -37.115  0.00  0.00    +0.012 C 
BRANCH   4   7
ATOM      5  C   UNL A   1      39.133 -22.816 -35.107  0.00  0.00    +0.213 C 
ATOM      6  O   UNL A   1      39.102 -23.968 -35.525  0.00  0.00    -0.276 OA
ATOM      7  N   UNL A   1      39.735 -21.778 -35.784  0.00  0.00    -0.315 N 
ATOM      8  H   UNL A   1      39.796 -20.894 -35.356  0.00  0.00    +0.000 HD
BRANCH   5   9
ATOM      9  C   UNL A   1      38.491 -22.424 -33.795  0.00  0.00    +0.028 C 
BRANCH   9  10
ATOM     10  C   UNL A   1      39.530 -21.857 -32.831  0.00  0.00    -0.019 C 
BRANCH  10  13
ATOM     11  C   UNL A   1      40.501 -18.180 -32.467  0.00  0.00    +0.165 A 
ATOM     12  C   UNL A   1      40.594 -19.569 -32.598  0.00  0.00    -0.013 A 
ATOM     13  C   UNL A   1      39.436 -20.356 -32.697  0.00  0.00    -0.040 A 
ATOM     14  C   UNL A   1      38.175 -19.738 -32.667  0.00  0.00    -0.013 A 
ATOM     15  C   UNL A   1      38.057 -18.352 -32.545  0.00  0.00    +0.165 A 
ATOM     16  C   UNL A   1      39.228 -17.584 -32.428  0.00  0.00    +0.204 A 
BRANCH  11  18
ATOM     17  C   UNL A   1      42.390 -17.142 -33.497  0.00  0.00    +0.079 C 
ATOM     18  O   UNL A   1      41.570 -17.329 -32.353  0.00  0.00    -0.491 OA
ENDBRANCH  11  18
BRANCH  15  19
ATOM     19  O   UNL A   1      36.870 -17.667 -32.530  0.00  0.00    -0.491 OA
ATOM     20  C   UNL A   1      36.236 -17.423 -33.778  0.00  0.00    +0.079 C 
ENDBRANCH  15  19
BRANCH  16  21
ATOM     21  O   UNL A   1      39.150 -16.210 -32.345  0.00  0.00    -0.488 OA
ATOM     22  C   UNL A   1      39.029 -15.806 -30.983  0.00  0.00    +0.079 C 
ENDBRANCH  16  21
ENDBRANCH  10  13
ENDBRANCH   9  10
ENDBRANCH   5   9
ENDBRANCH   4   7
ENDBRANCH   3   4
ENDBRANCH   2   3
ENDBRANCH   1   2
BRANCH   1  23
ATOM     23  C   UNL A   1      44.404 -20.046 -34.938  0.00  0.00    +0.025 C 
BRANCH  23  24
ATOM     24  C   UNL A   1      45.829 -20.067 -35.451  0.00  0.00    +0.229 C 
ATOM     25  O   UNL A   1      46.811 -19.876 -34.738  0.00  0.00    -0.274 OA
ATOM     26  N   UNL A   1      45.927 -20.389 -36.793  0.00  0.00    -0.236 N 
ATOM     27  H   UNL A   1      45.152 -20.717 -37.303  0.00  0.00    +0.000 HD
BRANCH  26  28
ATOM     28  N   UNL A   1      47.197 -20.225 -37.398  0.00  0.00    -0.264 N 
ATOM     29  H   UNL A   1      48.061 -20.365 -36.946  0.00  0.00    +0.000 HD
BRANCH  28  30
ATOM     30  C   UNL A   1      47.037 -19.827 -38.761  0.00  0.00    +0.058 A 
ATOM     31  C   UNL A   1      46.958 -18.447 -39.044  0.00  0.00    -0.003 A 
ATOM     32  C   UNL A   1      46.703 -18.068 -40.360  0.00  0.00    +0.047 A 
ATOM     33  N   UNL A   1      46.555 -18.960 -41.367  0.00  0.00    -0.251 NA
ATOM     34  C   UNL A   1      46.628 -20.271 -41.097  0.00  0.00    +0.073 A 
ATOM     35  C   UNL A   1      46.459 -21.159 -42.152  0.00  0.00    -0.036 A 
ATOM     36  C   UNL A   1      46.501 -22.542 -41.970  0.00  0.00    -0.060 A 
ATOM     37  C   UNL A   1      46.715 -23.058 -40.701  0.00  0.00    -0.061 A 
ATOM     38  C   UNL A   1      46.889 -22.186 -39.626  0.00  0.00    -0.051 A 
ATOM     39  C   UNL A   1      46.857 -20.779 -39.803  0.00  0.00    +0.023 A 
ATOM     40  C   UNL A   1      46.633 -16.619 -40.767  0.00  0.00    -0.010 C 
ATOM     41  C   UNL A   1      46.382 -15.675 -39.596  0.00  0.00    -0.047 C 
ATOM     42  C   UNL A   1      47.340 -15.998 -38.458  0.00  0.00    -0.049 C 
ATOM     43  C   UNL A   1      47.100 -17.418 -37.947  0.00  0.00    -0.024 C 
ENDBRANCH  28  30
ENDBRANCH  26  28
ENDBRANCH  23  24
ENDBRANCH   1  23
TORSDOF 14
ENDMDL
MODEL 6
REMARK VINA RESULT:    -5.490      2.397      5.907
REMARK INTER + INTRA:         -14.330
REMARK INTER:                  -9.390
REMARK INTRA:                  -4.940
REMARK UNBOUND:                -4.347
REMARK  Name = cpd76.pdb
REMARK  17 active torsions:
REMARK  status: ('A' for Active; 'I' for Inactive)
REMARK    1  A    between atoms: C_1  and  O_2
REMARK    2  A    between atoms: O_2  and  C_3
REMARK    3  A    between atoms: C_5  and  C_6
REMARK    4  A    between atoms: C_6  and  C_7
REMARK    5  A    between atoms: C_7  and  C_8
REMARK    6  A    between atoms: N_10  and  C_11
REMARK    7  A    between atoms: C_11  and  C_12
REMARK    8  A    between atoms: C_12  and  C_13
REMARK    9  A    between atoms: C_13  and  C_14
REMARK   10  A    between atoms: C_14  and  C_15
REMARK   11  A    between atoms: C_15  and  C_16
REMARK   12  A    between atoms: N_18  and  N_19
REMARK   13  A    between atoms: N_19  and  C_20
REMARK   14  A    between atoms: C_35  and  O_36
REMARK   15  A    between atoms: O_36  and  C_37
REMARK   16  A    between atoms: C_38  and  O_39
REMARK   17  A    between atoms: O_39  and  C_40
REMARK                            x       y       z     vdW  Elec       q    Type
REMARK                         _______ _______ _______ _____ _____    ______ ____
ROOT
ATOM      1  C   UNL A   1      31.612 -40.757 -31.184  0.00  0.00    -0.045 C 
ENDROOT
BRANCH   1   2
ATOM      2  C   UNL A   1      32.311 -40.119 -29.977  0.00  0.00    -0.051 C 
BRANCH   2   3
ATOM      3  C   UNL A   1      33.194 -41.133 -29.250  0.00  0.00    -0.037 C 
BRANCH   3   4
ATOM      4  C   UNL A   1      33.670 -40.602 -27.898  0.00  0.00    +0.012 C 
BRANCH   4   7
ATOM      5  C   UNL A   1      33.551 -38.519 -26.585  0.00  0.00    +0.213 C 
ATOM      6  O   UNL A   1      34.569 -38.774 -25.951  0.00  0.00    -0.276 OA
ATOM      7  N   UNL A   1      33.063 -39.321 -27.593  0.00  0.00    -0.315 N 
ATOM      8  H   UNL A   1      32.287 -39.019 -28.117  0.00  0.00    +0.000 HD
BRANCH   5   9
ATOM      9  C   UNL A   1      32.720 -37.288 -26.302  0.00  0.00    +0.028 C 
BRANCH   9  10
ATOM     10  C   UNL A   1      33.257 -36.083 -27.070  0.00  0.00    -0.019 C 
BRANCH  10  13
ATOM     11  C   UNL A   1      30.867 -33.692 -28.849  0.00  0.00    +0.165 A 
ATOM     12  C   UNL A   1      31.803 -34.200 -27.944  0.00  0.00    -0.013 A 
ATOM     13  C   UNL A   1      32.251 -35.526 -28.049  0.00  0.00    -0.040 A 
ATOM     14  C   UNL A   1      31.755 -36.345 -29.076  0.00  0.00    -0.013 A 
ATOM     15  C   UNL A   1      30.824 -35.857 -29.997  0.00  0.00    +0.165 A 
ATOM     16  C   UNL A   1      30.374 -34.533 -29.863  0.00  0.00    +0.204 A 
BRANCH  11  18
ATOM     17  C   UNL A   1      31.266 -31.344 -29.028  0.00  0.00    +0.079 C 
ATOM     18  O   UNL A   1      30.360 -32.418 -28.822  0.00  0.00    -0.491 OA
ENDBRANCH  11  18
BRANCH  15  19
ATOM     19  O   UNL A   1      30.306 -36.579 -31.040  0.00  0.00    -0.491 OA
ATOM     20  C   UNL A   1      29.233 -37.466 -30.757  0.00  0.00    +0.079 C 
ENDBRANCH  15  19
BRANCH  16  21
ATOM     21  O   UNL A   1      29.485 -34.007 -30.776  0.00  0.00    -0.488 OA
ATOM     22  C   UNL A   1      28.165 -34.012 -30.237  0.00  0.00    +0.079 C 
ENDBRANCH  16  21
ENDBRANCH  10  13
ENDBRANCH   9  10
ENDBRANCH   5   9
ENDBRANCH   4   7
ENDBRANCH   3   4
ENDBRANCH   2   3
ENDBRANCH   1   2
BRANCH   1  23
ATOM     23  C   UNL A   1      31.306 -39.736 -32.278  0.00  0.00    +0.025 C 
BRANCH  23  24
ATOM     24  C   UNL A   1      32.558 -39.092 -32.836  0.00  0.00    +0.229 C 
ATOM     25  O   UNL A   1      33.379 -39.690 -33.528  0.00  0.00    -0.274 OA
ATOM     26  N   UNL A   1      32.660 -37.742 -32.550  0.00  0.00    -0.236 N 
ATOM     27  H   UNL A   1      31.910 -37.241 -32.155  0.00  0.00    +0.000 HD
BRANCH  26  28
ATOM     28  N   UNL A   1      33.894 -37.117 -32.851  0.00  0.00    -0.264 N 
ATOM     29  H   UNL A   1      34.331 -37.123 -33.733  0.00  0.00    +0.000 HD
BRANCH  28  30
ATOM     30  C   UNL A   1      34.409 -36.475 -31.683  0.00  0.00    +0.058 A 
ATOM     31  C   UNL A   1      34.162 -35.096 -31.520  0.00  0.00    -0.003 A 
ATOM     32  C   UNL A   1      34.750 -34.455 -30.432  0.00  0.00    +0.047 A 
ATOM     33  N   UNL A   1      35.518 -35.101 -29.524  0.00  0.00    -0.251 NA
ATOM     34  C   UNL A   1      35.754 -36.411 -29.680  0.00  0.00    +0.073 A 
ATOM     35  C   UNL A   1      36.557 -37.041 -28.738  0.00  0.00    -0.036 A 
ATOM     36  C   UNL A   1      36.875 -38.397 -28.823  0.00  0.00    -0.060 A 
ATOM     37  C   UNL A   1      36.383 -39.150 -29.877  0.00  0.00    -0.061 A 
ATOM     38  C   UNL A   1      35.573 -38.540 -30.836  0.00  0.00    -0.051 A 
ATOM     39  C   UNL A   1      35.237 -37.164 -30.753  0.00  0.00    +0.023 A 
ATOM     40  C   UNL A   1      34.518 -32.992 -30.154  0.00  0.00    -0.010 C 
ATOM     41  C   UNL A   1      34.026 -32.218 -31.372  0.00  0.00    -0.047 C 
ATOM     42  C   UNL A   1      32.867 -32.961 -32.022  0.00  0.00    -0.049 C 
ATOM     43  C   UNL A   1      33.325 -34.332 -32.518  0.00  0.00    -0.024 C 
ENDBRANCH  28  30
ENDBRANCH  26  28
ENDBRANCH  23  24
ENDBRANCH   1  23
TORSDOF 14
ENDMDL
MODEL 7
REMARK VINA RESULT:    -5.469     19.811     23.760
REMARK INTER + INTRA:         -14.292
REMARK INTER:                 -10.717
REMARK INTRA:                  -3.575
REMARK UNBOUND:                -4.347
REMARK  Name = cpd76.pdb
REMARK  17 active torsions:
REMARK  status: ('A' for Active; 'I' for Inactive)
REMARK    1  A    between atoms: C_1  and  O_2
REMARK    2  A    between atoms: O_2  and  C_3
REMARK    3  A    between atoms: C_5  and  C_6
REMARK    4  A    between atoms: C_6  and  C_7
REMARK    5  A    between atoms: C_7  and  C_8
REMARK    6  A    between atoms: N_10  and  C_11
REMARK    7  A    between atoms: C_11  and  C_12
REMARK    8  A    between atoms: C_12  and  C_13
REMARK    9  A    between atoms: C_13  and  C_14
REMARK   10  A    between atoms: C_14  and  C_15
REMARK   11  A    between atoms: C_15  and  C_16
REMARK   12  A    between atoms: N_18  and  N_19
REMARK   13  A    between atoms: N_19  and  C_20
REMARK   14  A    between atoms: C_35  and  O_36
REMARK   15  A    between atoms: O_36  and  C_37
REMARK   16  A    between atoms: C_38  and  O_39
REMARK   17  A    between atoms: O_39  and  C_40
REMARK                            x       y       z     vdW  Elec       q    Type
REMARK                         _______ _______ _______ _____ _____    ______ ____
ROOT
ATOM      1  C   UNL A   1      44.771 -17.162 -36.360  0.00  0.00    -0.045 C 
ENDROOT
BRANCH   1   2
ATOM      2  C   UNL A   1      46.211 -16.892 -36.814  0.00  0.00    -0.051 C 
BRANCH   2   3
ATOM      3  C   UNL A   1      47.218 -17.322 -35.747  0.00  0.00    -0.037 C 
BRANCH   3   4
ATOM      4  C   UNL A   1      47.610 -18.791 -35.899  0.00  0.00    +0.012 C 
BRANCH   4   7
ATOM      5  C   UNL A   1      46.801 -20.194 -37.758  0.00  0.00    +0.213 C 
ATOM      6  O   UNL A   1      45.948 -20.744 -37.069  0.00  0.00    -0.276 OA
ATOM      7  N   UNL A   1      47.622 -19.191 -37.292  0.00  0.00    -0.315 N 
ATOM      8  H   UNL A   1      48.230 -18.736 -37.919  0.00  0.00    +0.000 HD
BRANCH   5   9
ATOM      9  C   UNL A   1      47.038 -20.586 -39.199  0.00  0.00    +0.028 C 
BRANCH   9  10
ATOM     10  C   UNL A   1      45.784 -20.351 -40.038  0.00  0.00    -0.019 C 
BRANCH  10  13
ATOM     11  C   UNL A   1      46.077 -16.591 -40.647  0.00  0.00    +0.165 A 
ATOM     12  C   UNL A   1      46.405 -17.947 -40.542  0.00  0.00    -0.013 A 
ATOM     13  C   UNL A   1      45.435 -18.887 -40.161  0.00  0.00    -0.040 A 
ATOM     14  C   UNL A   1      44.126 -18.460 -39.887  0.00  0.00    -0.013 A 
ATOM     15  C   UNL A   1      43.773 -17.113 -39.993  0.00  0.00    +0.165 A 
ATOM     16  C   UNL A   1      44.763 -16.184 -40.357  0.00  0.00    +0.204 A 
BRANCH  11  18
ATOM     17  C   UNL A   1      47.996 -15.284 -40.089  0.00  0.00    +0.079 C 
ATOM     18  O   UNL A   1      46.953 -15.597 -41.000  0.00  0.00    -0.491 OA
ENDBRANCH  11  18
BRANCH  15  19
ATOM     19  O   UNL A   1      42.517 -16.614 -39.766  0.00  0.00    -0.491 OA
ATOM     20  C   UNL A   1      41.908 -16.908 -38.517  0.00  0.00    +0.079 C 
ENDBRANCH  15  19
BRANCH  16  21
ATOM     21  O   UNL A   1      44.441 -14.852 -40.508  0.00  0.00    -0.488 OA
ATOM     22  C   UNL A   1      44.529 -14.180 -39.254  0.00  0.00    +0.079 C 
ENDBRANCH  16  21
ENDBRANCH  10  13
ENDBRANCH   9  10
ENDBRANCH   5   9
ENDBRANCH   4   7
ENDBRANCH   3   4
ENDBRANCH   2   3
ENDBRANCH   1   2
BRANCH   1  23
ATOM     23  C   UNL A   1      44.679 -17.406 -34.855  0.00  0.00    +0.025 C 
BRANCH  23  24
ATOM     24  C   UNL A   1      44.171 -18.795 -34.523  0.00  0.00    +0.229 C 
ATOM     25  O   UNL A   1      44.114 -19.241 -33.379  0.00  0.00    -0.274 OA
ATOM     26  N   UNL A   1      43.713 -19.493 -35.626  0.00  0.00    -0.236 N 
ATOM     27  H   UNL A   1      43.595 -19.057 -36.501  0.00  0.00    +0.000 HD
BRANCH  26  28
ATOM     28  N   UNL A   1      43.420 -20.865 -35.436  0.00  0.00    -0.264 N 
ATOM     29  H   UNL A   1      44.040 -21.528 -35.053  0.00  0.00    +0.000 HD
BRANCH  28  30
ATOM     30  C   UNL A   1      42.092 -21.144 -35.882  0.00  0.00    +0.058 A 
ATOM     31  C   UNL A   1      41.076 -21.257 -34.911  0.00  0.00    -0.003 A 
ATOM     32  C   UNL A   1      39.803 -21.626 -35.342  0.00  0.00    +0.047 A 
ATOM     33  N   UNL A   1      39.504 -21.853 -36.642  0.00  0.00    -0.251 NA
ATOM     34  C   UNL A   1      40.470 -21.746 -37.565  0.00  0.00    +0.073 A 
ATOM     35  C   UNL A   1      40.131 -21.998 -38.888  0.00  0.00    -0.036 A 
ATOM     36  C   UNL A   1      41.070 -21.930 -39.919  0.00  0.00    -0.060 A 
ATOM     37  C   UNL A   1      42.385 -21.605 -39.625  0.00  0.00    -0.061 A 
ATOM     38  C   UNL A   1      42.749 -21.346 -38.304  0.00  0.00    -0.051 A 
ATOM     39  C   UNL A   1      41.800 -21.404 -37.251  0.00  0.00    +0.023 A 
ATOM     40  C   UNL A   1      38.645 -21.741 -34.385  0.00  0.00    -0.010 C 
ATOM     41  C   UNL A   1      39.078 -21.899 -32.931  0.00  0.00    -0.047 C 
ATOM     42  C   UNL A   1      40.121 -20.846 -32.586  0.00  0.00    -0.049 C 
ATOM     43  C   UNL A   1      41.370 -21.030 -33.447  0.00  0.00    -0.024 C 
ENDBRANCH  28  30
ENDBRANCH  26  28
ENDBRANCH  23  24
ENDBRANCH   1  23
TORSDOF 14
ENDMDL
MODEL 8
REMARK VINA RESULT:    -5.469      3.316      5.683
REMARK INTER + INTRA:         -14.292
REMARK INTER:                 -12.719
REMARK INTRA:                  -1.574
REMARK UNBOUND:                -4.347
REMARK  Name = cpd76.pdb
REMARK  17 active torsions:
REMARK  status: ('A' for Active; 'I' for Inactive)
REMARK    1  A    between atoms: C_1  and  O_2
REMARK    2  A    between atoms: O_2  and  C_3
REMARK    3  A    between atoms: C_5  and  C_6
REMARK    4  A    between atoms: C_6  and  C_7
REMARK    5  A    between atoms: C_7  and  C_8
REMARK    6  A    between atoms: N_10  and  C_11
REMARK    7  A    between atoms: C_11  and  C_12
REMARK    8  A    between atoms: C_12  and  C_13
REMARK    9  A    between atoms: C_13  and  C_14
REMARK   10  A    between atoms: C_14  and  C_15
REMARK   11  A    between atoms: C_15  and  C_16
REMARK   12  A    between atoms: N_18  and  N_19
REMARK   13  A    between atoms: N_19  and  C_20
REMARK   14  A    between atoms: C_35  and  O_36
REMARK   15  A    between atoms: O_36  and  C_37
REMARK   16  A    between atoms: C_38  and  O_39
REMARK   17  A    between atoms: O_39  and  C_40
REMARK                            x       y       z     vdW  Elec       q    Type
REMARK                         _______ _______ _______ _____ _____    ______ ____
ROOT
ATOM      1  C   UNL A   1      33.402 -33.864 -28.904  0.00  0.00    -0.045 C 
ENDROOT
BRANCH   1   2
ATOM      2  C   UNL A   1      32.157 -34.537 -29.494  0.00  0.00    -0.051 C 
BRANCH   2   3
ATOM      3  C   UNL A   1      31.390 -33.579 -30.406  0.00  0.00    -0.037 C 
BRANCH   3   4
ATOM      4  C   UNL A   1      31.367 -34.072 -31.853  0.00  0.00    +0.012 C 
BRANCH   4   7
ATOM      5  C   UNL A   1      32.961 -35.737 -32.724  0.00  0.00    +0.213 C 
ATOM      6  O   UNL A   1      33.647 -34.893 -33.291  0.00  0.00    -0.276 OA
ATOM      7  N   UNL A   1      31.862 -35.430 -31.953  0.00  0.00    -0.315 N 
ATOM      8  H   UNL A   1      31.403 -36.148 -31.460  0.00  0.00    +0.000 HD
BRANCH   5   9
ATOM      9  C   UNL A   1      33.260 -37.216 -32.837  0.00  0.00    +0.028 C 
BRANCH   9  10
ATOM     10  C   UNL A   1      31.974 -38.015 -33.037  0.00  0.00    -0.019 C 
BRANCH  10  13
ATOM     11  C   UNL A   1      33.156 -41.219 -34.749  0.00  0.00    +0.165 A 
ATOM     12  C   UNL A   1      33.006 -40.198 -33.806  0.00  0.00    -0.013 A 
ATOM     13  C   UNL A   1      32.135 -39.125 -34.049  0.00  0.00    -0.040 A 
ATOM     14  C   UNL A   1      31.407 -39.082 -35.249  0.00  0.00    -0.013 A 
ATOM     15  C   UNL A   1      31.534 -40.094 -36.202  0.00  0.00    +0.165 A 
ATOM     16  C   UNL A   1      32.425 -41.150 -35.949  0.00  0.00    +0.204 A 
BRANCH  11  18
ATOM     17  C   UNL A   1      33.457 -43.465 -33.996  0.00  0.00    +0.079 C 
ATOM     18  O   UNL A   1      33.987 -42.300 -34.610  0.00  0.00    -0.491 OA
ENDBRANCH  11  18
BRANCH  15  19
ATOM     19  O   UNL A   1      30.846 -40.142 -37.387  0.00  0.00    -0.491 OA
ATOM     20  C   UNL A   1      29.437 -39.968 -37.337  0.00  0.00    +0.079 C 
ENDBRANCH  15  19
BRANCH  16  21
ATOM     21  O   UNL A   1      32.548 -42.186 -36.851  0.00  0.00    -0.488 OA
ATOM     22  C   UNL A   1      33.599 -41.912 -37.775  0.00  0.00    +0.079 C 
ENDBRANCH  16  21
ENDBRANCH  10  13
ENDBRANCH   9  10
ENDBRANCH   5   9
ENDBRANCH   4   7
ENDBRANCH   3   4
ENDBRANCH   2   3
ENDBRANCH   1   2
BRANCH   1  23
ATOM     23  C   UNL A   1      33.879 -32.690 -29.756  0.00  0.00    +0.025 C 
BRANCH  23  24
ATOM     24  C   UNL A   1      34.895 -33.106 -30.800  0.00  0.00    +0.229 C 
ATOM     25  O   UNL A   1      35.197 -32.412 -31.769  0.00  0.00    -0.274 OA
ATOM     26  N   UNL A   1      35.505 -34.317 -30.525  0.00  0.00    -0.236 N 
ATOM     27  H   UNL A   1      35.387 -34.769 -29.659  0.00  0.00    +0.000 HD
BRANCH  26  28
ATOM     28  N   UNL A   1      36.306 -34.876 -31.551  0.00  0.00    -0.264 N 
ATOM     29  H   UNL A   1      36.255 -34.633 -32.504  0.00  0.00    +0.000 HD
BRANCH  28  30
ATOM     30  C   UNL A   1      37.198 -35.844 -30.995  0.00  0.00    +0.058 A 
ATOM     31  C   UNL A   1      36.647 -36.891 -30.227  0.00  0.00    -0.003 A 
ATOM     32  C   UNL A   1      37.527 -37.774 -29.606  0.00  0.00    +0.047 A 
ATOM     33  N   UNL A   1      38.872 -37.682 -29.732  0.00  0.00    -0.251 NA
ATOM     34  C   UNL A   1      39.395 -36.686 -30.460  0.00  0.00    +0.073 A 
ATOM     35  C   UNL A   1      40.779 -36.614 -30.557  0.00  0.00    -0.036 A 
ATOM     36  C   UNL A   1      41.420 -35.605 -31.278  0.00  0.00    -0.060 A 
ATOM     37  C   UNL A   1      40.662 -34.637 -31.919  0.00  0.00    -0.061 A 
ATOM     38  C   UNL A   1      39.270 -34.690 -31.838  0.00  0.00    -0.051 A 
ATOM     39  C   UNL A   1      38.610 -35.717 -31.115  0.00  0.00    +0.023 A 
ATOM     40  C   UNL A   1      37.035 -38.943 -28.793  0.00  0.00    -0.010 C 
ATOM     41  C   UNL A   1      35.592 -38.786 -28.326  0.00  0.00    -0.047 C 
ATOM     42  C   UNL A   1      34.711 -38.377 -29.498  0.00  0.00    -0.049 C 
ATOM     43  C   UNL A   1      35.153 -37.021 -30.048  0.00  0.00    -0.024 C 
ENDBRANCH  28  30
ENDBRANCH  26  28
ENDBRANCH  23  24
ENDBRANCH   1  23
TORSDOF 14
ENDMDL
MODEL 9
REMARK VINA RESULT:    -5.332     18.331     22.191
REMARK INTER + INTRA:         -14.043
REMARK INTER:                 -12.247
REMARK INTRA:                  -1.796
REMARK UNBOUND:                -4.347
REMARK  Name = cpd76.pdb
REMARK  17 active torsions:
REMARK  status: ('A' for Active; 'I' for Inactive)
REMARK    1  A    between atoms: C_1  and  O_2
REMARK    2  A    between atoms: O_2  and  C_3
REMARK    3  A    between atoms: C_5  and  C_6
REMARK    4  A    between atoms: C_6  and  C_7
REMARK    5  A    between atoms: C_7  and  C_8
REMARK    6  A    between atoms: N_10  and  C_11
REMARK    7  A    between atoms: C_11  and  C_12
REMARK    8  A    between atoms: C_12  and  C_13
REMARK    9  A    between atoms: C_13  and  C_14
REMARK   10  A    between atoms: C_14  and  C_15
REMARK   11  A    between atoms: C_15  and  C_16
REMARK   12  A    between atoms: N_18  and  N_19
REMARK   13  A    between atoms: N_19  and  C_20
REMARK   14  A    between atoms: C_35  and  O_36
REMARK   15  A    between atoms: O_36  and  C_37
REMARK   16  A    between atoms: C_38  and  O_39
REMARK   17  A    between atoms: O_39  and  C_40
REMARK                            x       y       z     vdW  Elec       q    Type
REMARK                         _______ _______ _______ _____ _____    ______ ____
ROOT
ATOM      1  C   UNL A   1      39.216 -21.750 -36.761  0.00  0.00    -0.045 C 
ENDROOT
BRANCH   1   2
ATOM      2  C   UNL A   1      40.326 -21.817 -37.818  0.00  0.00    -0.051 C 
BRANCH   2   3
ATOM      3  C   UNL A   1      41.691 -22.053 -37.171  0.00  0.00    -0.037 C 
BRANCH   3   4
ATOM      4  C   UNL A   1      42.317 -20.749 -36.677  0.00  0.00    +0.012 C 
BRANCH   4   7
ATOM      5  C   UNL A   1      44.566 -19.841 -36.241  0.00  0.00    +0.213 C 
ATOM      6  O   UNL A   1      44.183 -18.676 -36.275  0.00  0.00    -0.276 OA
ATOM      7  N   UNL A   1      43.722 -20.922 -36.371  0.00  0.00    -0.315 N 
ATOM      8  H   UNL A   1      44.082 -21.831 -36.253  0.00  0.00    +0.000 HD
BRANCH   5   9
ATOM      9  C   UNL A   1      46.025 -20.198 -36.063  0.00  0.00    +0.028 C 
BRANCH   9  10
ATOM     10  C   UNL A   1      46.883 -19.518 -37.128  0.00  0.00    -0.019 C 
BRANCH  10  13
ATOM     11  C   UNL A   1      45.705 -19.573 -40.761  0.00  0.00    +0.165 A 
ATOM     12  C   UNL A   1      46.008 -19.123 -39.472  0.00  0.00    -0.013 A 
ATOM     13  C   UNL A   1      46.561 -19.996 -38.523  0.00  0.00    -0.040 A 
ATOM     14  C   UNL A   1      46.815 -21.332 -38.876  0.00  0.00    -0.013 A 
ATOM     15  C   UNL A   1      46.528 -21.802 -40.159  0.00  0.00    +0.165 A 
ATOM     16  C   UNL A   1      45.956 -20.917 -41.089  0.00  0.00    +0.204 A 
BRANCH  11  18
ATOM     17  C   UNL A   1      44.394 -17.669 -41.360  0.00  0.00    +0.079 C 
ATOM     18  O   UNL A   1      45.153 -18.803 -41.752  0.00  0.00    -0.491 OA
ENDBRANCH  11  18
BRANCH  15  19
ATOM     19  O   UNL A   1      46.763 -23.080 -40.593  0.00  0.00    -0.491 OA
ATOM     20  C   UNL A   1      48.039 -23.360 -41.154  0.00  0.00    +0.079 C 
ENDBRANCH  15  19
BRANCH  16  21
ATOM     21  O   UNL A   1      45.696 -21.337 -42.376  0.00  0.00    -0.488 OA
ATOM     22  C   UNL A   1      44.352 -21.804 -42.478  0.00  0.00    +0.079 C 
ENDBRANCH  16  21
ENDBRANCH  10  13
ENDBRANCH   9  10
ENDBRANCH   5   9
ENDBRANCH   4   7
ENDBRANCH   3   4
ENDBRANCH   2   3
ENDBRANCH   1   2
BRANCH   1  23
ATOM     23  C   UNL A   1      39.161 -23.013 -35.904  0.00  0.00    +0.025 C 
BRANCH  23  24
ATOM     24  C   UNL A   1      39.244 -22.711 -34.422  0.00  0.00    +0.229 C 
ATOM     25  O   UNL A   1      38.780 -23.446 -33.552  0.00  0.00    -0.274 OA
ATOM     26  N   UNL A   1      39.954 -21.560 -34.132  0.00  0.00    -0.236 N 
ATOM     27  H   UNL A   1      40.472 -21.085 -34.821  0.00  0.00    +0.000 HD
BRANCH  26  28
ATOM     28  N   UNL A   1      39.898 -21.095 -32.795  0.00  0.00    -0.264 N 
ATOM     29  H   UNL A   1      39.871 -21.672 -31.997  0.00  0.00    +0.000 HD
BRANCH  28  30
ATOM     30  C   UNL A   1      39.889 -19.667 -32.778  0.00  0.00    +0.058 A 
ATOM     31  C   UNL A   1      38.641 -19.011 -32.827  0.00  0.00    -0.003 A 
ATOM     32  C   UNL A   1      38.640 -17.620 -32.911  0.00  0.00    +0.047 A 
ATOM     33  N   UNL A   1      39.776 -16.884 -32.922  0.00  0.00    -0.251 NA
ATOM     34  C   UNL A   1      40.961 -17.507 -32.877  0.00  0.00    +0.073 A 
ATOM     35  C   UNL A   1      42.107 -16.722 -32.903  0.00  0.00    -0.036 A 
ATOM     36  C   UNL A   1      43.387 -17.277 -32.877  0.00  0.00    -0.060 A 
ATOM     37  C   UNL A   1      43.533 -18.655 -32.828  0.00  0.00    -0.061 A 
ATOM     38  C   UNL A   1      42.398 -19.465 -32.800  0.00  0.00    -0.051 A 
ATOM     39  C   UNL A   1      41.093 -18.909 -32.816  0.00  0.00    +0.023 A 
ATOM     40  C   UNL A   1      37.359 -16.828 -32.933  0.00  0.00    -0.010 C 
ATOM     41  C   UNL A   1      36.145 -17.658 -33.340  0.00  0.00    -0.047 C 
ATOM     42  C   UNL A   1      36.111 -18.951 -32.537  0.00  0.00    -0.049 C 
ATOM     43  C   UNL A   1      37.350 -19.795 -32.834  0.00  0.00    -0.024 C 
ENDBRANCH  28  30
ENDBRANCH  26  28
ENDBRANCH  23  24
ENDBRANCH   1  23
TORSDOF 14
ENDMDL
MODEL 10
REMARK VINA RESULT:    -5.305     19.631     23.491
REMARK INTER + INTRA:         -13.993
REMARK INTER:                 -10.795
REMARK INTRA:                  -3.198
REMARK UNBOUND:                -4.347
REMARK  Name = cpd76.pdb
REMARK  17 active torsions:
REMARK  status: ('A' for Active; 'I' for Inactive)
REMARK    1  A    between atoms: C_1  and  O_2
REMARK    2  A    between atoms: O_2  and  C_3
REMARK    3  A    between atoms: C_5  and  C_6
REMARK    4  A    between atoms: C_6  and  C_7
REMARK    5  A    between atoms: C_7  and  C_8
REMARK    6  A    between atoms: N_10  and  C_11
REMARK    7  A    between atoms: C_11  and  C_12
REMARK    8  A    between atoms: C_12  and  C_13
REMARK    9  A    between atoms: C_13  and  C_14
REMARK   10  A    between atoms: C_14  and  C_15
REMARK   11  A    between atoms: C_15  and  C_16
REMARK   12  A    between atoms: N_18  and  N_19
REMARK   13  A    between atoms: N_19  and  C_20
REMARK   14  A    between atoms: C_35  and  O_36
REMARK   15  A    between atoms: O_36  and  C_37
REMARK   16  A    between atoms: C_38  and  O_39
REMARK   17  A    between atoms: O_39  and  C_40
REMARK                            x       y       z     vdW  Elec       q    Type
REMARK                         _______ _______ _______ _____ _____    ______ ____
ROOT
ATOM      1  C   UNL A   1      44.664 -16.973 -35.723  0.00  0.00    -0.045 C 
ENDROOT
BRANCH   1   2
ATOM      2  C   UNL A   1      43.732 -15.777 -35.494  0.00  0.00    -0.051 C 
BRANCH   2   3
ATOM      3  C   UNL A   1      44.141 -14.583 -36.358  0.00  0.00    -0.037 C 
BRANCH   3   4
ATOM      4  C   UNL A   1      43.102 -14.285 -37.438  0.00  0.00    +0.012 C 
BRANCH   4   7
ATOM      5  C   UNL A   1      42.045 -16.135 -38.677  0.00  0.00    +0.213 C 
ATOM      6  O   UNL A   1      40.982 -16.030 -38.073  0.00  0.00    -0.276 OA
ATOM      7  N   UNL A   1      43.118 -15.295 -38.477  0.00  0.00    -0.315 N 
ATOM      8  H   UNL A   1      43.913 -15.383 -39.052  0.00  0.00    +0.000 HD
BRANCH   5   9
ATOM      9  C   UNL A   1      42.277 -17.222 -39.702  0.00  0.00    +0.028 C 
BRANCH   9  10
ATOM     10  C   UNL A   1      43.494 -16.902 -40.566  0.00  0.00    -0.019 C 
BRANCH  10  13
ATOM     11  C   UNL A   1      46.390 -19.228 -39.675  0.00  0.00    +0.165 A 
ATOM     12  C   UNL A   1      45.470 -18.177 -39.622  0.00  0.00    -0.013 A 
ATOM     13  C   UNL A   1      44.486 -18.039 -40.613  0.00  0.00    -0.040 A 
ATOM     14  C   UNL A   1      44.426 -18.970 -41.663  0.00  0.00    -0.013 A 
ATOM     15  C   UNL A   1      45.330 -20.033 -41.733  0.00  0.00    +0.165 A 
ATOM     16  C   UNL A   1      46.319 -20.142 -40.741  0.00  0.00    +0.204 A 
BRANCH  11  18
ATOM     17  C   UNL A   1      47.155 -19.051 -37.419  0.00  0.00    +0.079 C 
ATOM     18  O   UNL A   1      47.392 -19.441 -38.763  0.00  0.00    -0.491 OA
ENDBRANCH  11  18
BRANCH  15  19
ATOM     19  O   UNL A   1      45.329 -20.997 -42.707  0.00  0.00    -0.491 OA
ATOM     20  C   UNL A   1      44.294 -21.970 -42.669  0.00  0.00    +0.079 C 
ENDBRANCH  15  19
BRANCH  16  21
ATOM     21  O   UNL A   1      47.203 -21.200 -40.757  0.00  0.00    -0.488 OA
ATOM     22  C   UNL A   1      48.254 -20.949 -41.688  0.00  0.00    +0.079 C 
ENDBRANCH  16  21
ENDBRANCH  10  13
ENDBRANCH   9  10
ENDBRANCH   5   9
ENDBRANCH   4   7
ENDBRANCH   3   4
ENDBRANCH   2   3
ENDBRANCH   1   2
BRANCH   1  23
ATOM     23  C   UNL A   1      45.189 -17.552 -34.412  0.00  0.00    +0.025 C 
BRANCH  23  24
ATOM     24  C   UNL A   1      44.895 -19.032 -34.273  0.00  0.00    +0.229 C 
ATOM     25  O   UNL A   1      45.768 -19.895 -34.204  0.00  0.00    -0.274 OA
ATOM     26  N   UNL A   1      43.546 -19.318 -34.162  0.00  0.00    -0.236 N 
ATOM     27  H   UNL A   1      42.877 -18.608 -34.035  0.00  0.00    +0.000 HD
BRANCH  26  28
ATOM     28  N   UNL A   1      43.174 -20.682 -34.241  0.00  0.00    -0.264 N 
ATOM     29  H   UNL A   1      43.647 -21.424 -33.798  0.00  0.00    +0.000 HD
BRANCH  28  30
ATOM     30  C   UNL A   1      42.011 -20.821 -35.059  0.00  0.00    +0.058 A 
ATOM     31  C   UNL A   1      40.763 -20.967 -34.419  0.00  0.00    -0.003 A 
ATOM     32  C   UNL A   1      39.646 -21.201 -35.218  0.00  0.00    +0.047 A 
ATOM     33  N   UNL A   1      39.709 -21.268 -36.568  0.00  0.00    -0.251 NA
ATOM     34  C   UNL A   1      40.896 -21.131 -37.176  0.00  0.00    +0.073 A 
ATOM     35  C   UNL A   1      40.926 -21.218 -38.562  0.00  0.00    -0.036 A 
ATOM     36  C   UNL A   1      42.114 -21.106 -39.286  0.00  0.00    -0.060 A 
ATOM     37  C   UNL A   1      43.308 -20.905 -38.612  0.00  0.00    -0.061 A 
ATOM     38  C   UNL A   1      43.303 -20.812 -37.220  0.00  0.00    -0.051 A 
ATOM     39  C   UNL A   1      42.099 -20.916 -36.477  0.00  0.00    +0.023 A 
ATOM     40  C   UNL A   1      38.265 -21.336 -34.630  0.00  0.00    -0.010 C 
ATOM     41  C   UNL A   1      38.275 -21.675 -33.143  0.00  0.00    -0.047 C 
ATOM     42  C   UNL A   1      39.220 -20.738 -32.406  0.00  0.00    -0.049 C 
ATOM     43  C   UNL A   1      40.650 -20.915 -32.913  0.00  0.00    -0.024 C 
ENDBRANCH  28  30
ENDBRANCH  26  28
ENDBRANCH  23  24
ENDBRANCH   1  23
TORSDOF 14
ENDMDL
MODEL 11
REMARK VINA RESULT:    -5.281     19.745     23.438
REMARK INTER + INTRA:         -13.951
REMARK INTER:                 -10.183
REMARK INTRA:                  -3.768
REMARK UNBOUND:                -4.347
REMARK  Name = cpd76.pdb
REMARK  17 active torsions:
REMARK  status: ('A' for Active; 'I' for Inactive)
REMARK    1  A    between atoms: C_1  and  O_2
REMARK    2  A    between atoms: O_2  and  C_3
REMARK    3  A    between atoms: C_5  and  C_6
REMARK    4  A    between atoms: C_6  and  C_7
REMARK    5  A    between atoms: C_7  and  C_8
REMARK    6  A    between atoms: N_10  and  C_11
REMARK    7  A    between atoms: C_11  and  C_12
REMARK    8  A    between atoms: C_12  and  C_13
REMARK    9  A    between atoms: C_13  and  C_14
REMARK   10  A    between atoms: C_14  and  C_15
REMARK   11  A    between atoms: C_15  and  C_16
REMARK   12  A    between atoms: N_18  and  N_19
REMARK   13  A    between atoms: N_19  and  C_20
REMARK   14  A    between atoms: C_35  and  O_36
REMARK   15  A    between atoms: O_36  and  C_37
REMARK   16  A    between atoms: C_38  and  O_39
REMARK   17  A    between atoms: O_39  and  C_40
REMARK                            x       y       z     vdW  Elec       q    Type
REMARK                         _______ _______ _______ _____ _____    ______ ____
ROOT
ATOM      1  C   UNL A   1      43.956 -16.164 -34.891  0.00  0.00    -0.045 C 
ENDROOT
BRANCH   1   2
ATOM      2  C   UNL A   1      42.871 -15.902 -33.840  0.00  0.00    -0.051 C 
BRANCH   2   3
ATOM      3  C   UNL A   1      41.654 -16.799 -34.066  0.00  0.00    -0.037 C 
BRANCH   3   4
ATOM      4  C   UNL A   1      40.872 -16.387 -35.313  0.00  0.00    +0.012 C 
BRANCH   4   7
ATOM      5  C   UNL A   1      41.698 -16.654 -37.620  0.00  0.00    +0.213 C 
ATOM      6  O   UNL A   1      41.943 -15.459 -37.749  0.00  0.00    -0.276 OA
ATOM      7  N   UNL A   1      41.226 -17.210 -36.453  0.00  0.00    -0.315 N 
ATOM      8  H   UNL A   1      41.127 -18.188 -36.390  0.00  0.00    +0.000 HD
BRANCH   5   9
ATOM      9  C   UNL A   1      41.884 -17.634 -38.756  0.00  0.00    +0.028 C 
BRANCH   9  10
ATOM     10  C   UNL A   1      42.888 -17.100 -39.775  0.00  0.00    -0.019 C 
BRANCH  10  13
ATOM     11  C   UNL A   1      46.235 -18.775 -39.009  0.00  0.00    +0.165 A 
ATOM     12  C   UNL A   1      45.098 -17.969 -38.892  0.00  0.00    -0.013 A 
ATOM     13  C   UNL A   1      44.114 -17.974 -39.893  0.00  0.00    -0.040 A 
ATOM     14  C   UNL A   1      44.274 -18.799 -41.018  0.00  0.00    -0.013 A 
ATOM     15  C   UNL A   1      45.397 -19.618 -41.153  0.00  0.00    +0.165 A 
ATOM     16  C   UNL A   1      46.380 -19.585 -40.150  0.00  0.00    +0.204 A 
BRANCH  11  18
ATOM     17  C   UNL A   1      46.982 -19.441 -36.841  0.00  0.00    +0.079 C 
ATOM     18  O   UNL A   1      47.254 -18.833 -38.095  0.00  0.00    -0.491 OA
ENDBRANCH  11  18
BRANCH  15  19
ATOM     19  O   UNL A   1      45.621 -20.468 -42.205  0.00  0.00    -0.491 OA
ATOM     20  C   UNL A   1      44.549 -21.308 -42.612  0.00  0.00    +0.079 C 
ENDBRANCH  15  19
BRANCH  16  21
ATOM     21  O   UNL A   1      47.483 -20.409 -40.233  0.00  0.00    -0.488 OA
ATOM     22  C   UNL A   1      47.158 -21.713 -39.757  0.00  0.00    +0.079 C 
ENDBRANCH  16  21
ENDBRANCH  10  13
ENDBRANCH   9  10
ENDBRANCH   5   9
ENDBRANCH   4   7
ENDBRANCH   3   4
ENDBRANCH   2   3
ENDBRANCH   1   2
BRANCH   1  23
ATOM     23  C   UNL A   1      45.089 -17.030 -34.345  0.00  0.00    +0.025 C 
BRANCH  23  24
ATOM     24  C   UNL A   1      44.675 -18.476 -34.159  0.00  0.00    +0.229 C 
ATOM     25  O   UNL A   1      44.826 -19.096 -33.108  0.00  0.00    -0.274 OA
ATOM     26  N   UNL A   1      44.046 -19.016 -35.266  0.00  0.00    -0.236 N 
ATOM     27  H   UNL A   1      43.770 -18.457 -36.027  0.00  0.00    +0.000 HD
BRANCH  26  28
ATOM     28  N   UNL A   1      43.819 -20.414 -35.252  0.00  0.00    -0.264 N 
ATOM     29  H   UNL A   1      44.496 -21.095 -35.033  0.00  0.00    +0.000 HD
BRANCH  28  30
ATOM     30  C   UNL A   1      42.462 -20.688 -35.603  0.00  0.00    +0.058 A 
ATOM     31  C   UNL A   1      42.165 -20.942 -36.958  0.00  0.00    -0.003 A 
ATOM     32  C   UNL A   1      40.828 -21.110 -37.310  0.00  0.00    +0.047 A 
ATOM     33  N   UNL A   1      39.819 -21.065 -36.409  0.00  0.00    -0.251 NA
ATOM     34  C   UNL A   1      40.101 -20.822 -35.122  0.00  0.00    +0.073 A 
ATOM     35  C   UNL A   1      39.041 -20.769 -34.226  0.00  0.00    -0.036 A 
ATOM     36  C   UNL A   1      39.230 -20.505 -32.868  0.00  0.00    -0.060 A 
ATOM     37  C   UNL A   1      40.511 -20.285 -32.387  0.00  0.00    -0.061 A 
ATOM     38  C   UNL A   1      41.593 -20.334 -33.267  0.00  0.00    -0.051 A 
ATOM     39  C   UNL A   1      41.411 -20.611 -34.647  0.00  0.00    +0.023 A 
ATOM     40  C   UNL A   1      40.413 -21.419 -38.726  0.00  0.00    -0.010 C 
ATOM     41  C   UNL A   1      41.476 -21.053 -39.757  0.00  0.00    -0.047 C 
ATOM     42  C   UNL A   1      42.826 -21.607 -39.327  0.00  0.00    -0.049 C 
ATOM     43  C   UNL A   1      43.259 -20.985 -38.000  0.00  0.00    -0.024 C 
ENDBRANCH  28  30
ENDBRANCH  26  28
ENDBRANCH  23  24
ENDBRANCH   1  23
TORSDOF 14
ENDMDL
MODEL 12
REMARK VINA RESULT:    -5.266     19.447     23.531
REMARK INTER + INTRA:         -13.924
REMARK INTER:                 -10.792
REMARK INTRA:                  -3.132
REMARK UNBOUND:                -4.347
REMARK  Name = cpd76.pdb
REMARK  17 active torsions:
REMARK  status: ('A' for Active; 'I' for Inactive)
REMARK    1  A    between atoms: C_1  and  O_2
REMARK    2  A    between atoms: O_2  and  C_3
REMARK    3  A    between atoms: C_5  and  C_6
REMARK    4  A    between atoms: C_6  and  C_7
REMARK    5  A    between atoms: C_7  and  C_8
REMARK    6  A    between atoms: N_10  and  C_11
REMARK    7  A    between atoms: C_11  and  C_12
REMARK    8  A    between atoms: C_12  and  C_13
REMARK    9  A    between atoms: C_13  and  C_14
REMARK   10  A    between atoms: C_14  and  C_15
REMARK   11  A    between atoms: C_15  and  C_16
REMARK   12  A    between atoms: N_18  and  N_19
REMARK   13  A    between atoms: N_19  and  C_20
REMARK   14  A    between atoms: C_35  and  O_36
REMARK   15  A    between atoms: O_36  and  C_37
REMARK   16  A    between atoms: C_38  and  O_39
REMARK   17  A    between atoms: O_39  and  C_40
REMARK                            x       y       z     vdW  Elec       q    Type
REMARK                         _______ _______ _______ _____ _____    ______ ____
ROOT
ATOM      1  C   UNL A   1      45.059 -16.966 -34.739  0.00  0.00    -0.045 C 
ENDROOT
BRANCH   1   2
ATOM      2  C   UNL A   1      43.939 -16.841 -35.779  0.00  0.00    -0.051 C 
BRANCH   2   3
ATOM      3  C   UNL A   1      43.135 -15.556 -35.574  0.00  0.00    -0.037 C 
BRANCH   3   4
ATOM      4  C   UNL A   1      41.995 -15.435 -36.585  0.00  0.00    +0.012 C 
BRANCH   4   7
ATOM      5  C   UNL A   1      41.684 -16.406 -38.829  0.00  0.00    +0.213 C 
ATOM      6  O   UNL A   1      40.534 -16.765 -38.595  0.00  0.00    -0.276 OA
ATOM      7  N   UNL A   1      42.457 -15.702 -37.933  0.00  0.00    -0.315 N 
ATOM      8  H   UNL A   1      43.342 -15.374 -38.213  0.00  0.00    +0.000 HD
BRANCH   5   9
ATOM      9  C   UNL A   1      42.367 -16.721 -40.141  0.00  0.00    +0.028 C 
BRANCH   9  10
ATOM     10  C   UNL A   1      43.867 -16.452 -40.049  0.00  0.00    -0.019 C 
BRANCH  10  13
ATOM     11  C   UNL A   1      45.318 -19.712 -41.412  0.00  0.00    +0.165 A 
ATOM     12  C   UNL A   1      44.558 -18.544 -41.300  0.00  0.00    -0.013 A 
ATOM     13  C   UNL A   1      44.690 -17.710 -40.179  0.00  0.00    -0.040 A 
ATOM     14  C   UNL A   1      45.599 -18.054 -39.165  0.00  0.00    -0.013 A 
ATOM     15  C   UNL A   1      46.375 -19.212 -39.257  0.00  0.00    +0.165 A 
ATOM     16  C   UNL A   1      46.213 -20.043 -40.379  0.00  0.00    +0.204 A 
BRANCH  11  18
ATOM     17  C   UNL A   1      44.330 -21.669 -42.359  0.00  0.00    +0.079 C 
ATOM     18  O   UNL A   1      45.252 -20.594 -42.459  0.00  0.00    -0.491 OA
ENDBRANCH  11  18
BRANCH  15  19
ATOM     19  O   UNL A   1      47.298 -19.610 -38.327  0.00  0.00    -0.491 OA
ATOM     20  C   UNL A   1      47.271 -18.971 -37.058  0.00  0.00    +0.079 C 
ENDBRANCH  15  19
BRANCH  16  21
ATOM     21  O   UNL A   1      46.989 -21.173 -40.522  0.00  0.00    -0.488 OA
ATOM     22  C   UNL A   1      48.073 -20.916 -41.412  0.00  0.00    +0.079 C 
ENDBRANCH  16  21
ENDBRANCH  10  13
ENDBRANCH   9  10
ENDBRANCH   5   9
ENDBRANCH   4   7
ENDBRANCH   3   4
ENDBRANCH   2   3
ENDBRANCH   1   2
BRANCH   1  23
ATOM     23  C   UNL A   1      44.605 -17.721 -33.493  0.00  0.00    +0.025 C 
BRANCH  23  24
ATOM     24  C   UNL A   1      44.422 -19.204 -33.748  0.00  0.00    +0.229 C 
ATOM     25  O   UNL A   1      45.357 -19.986 -33.905  0.00  0.00    -0.274 OA
ATOM     26  N   UNL A   1      43.100 -19.609 -33.721  0.00  0.00    -0.236 N 
ATOM     27  H   UNL A   1      42.382 -19.010 -33.414  0.00  0.00    +0.000 HD
BRANCH  26  28
ATOM     28  N   UNL A   1      42.828 -20.929 -34.157  0.00  0.00    -0.264 N 
ATOM     29  H   UNL A   1      43.374 -21.720 -33.941  0.00  0.00    +0.000 HD
BRANCH  28  30
ATOM     30  C   UNL A   1      41.644 -20.941 -34.956  0.00  0.00    +0.058 A 
ATOM     31  C   UNL A   1      41.785 -20.812 -36.353  0.00  0.00    -0.003 A 
ATOM     32  C   UNL A   1      40.623 -20.725 -37.118  0.00  0.00    +0.047 A 
ATOM     33  N   UNL A   1      39.383 -20.784 -36.580  0.00  0.00    -0.251 NA
ATOM     34  C   UNL A   1      39.249 -20.905 -35.252  0.00  0.00    +0.073 A 
ATOM     35  C   UNL A   1      37.961 -20.950 -34.733  0.00  0.00    -0.036 A 
ATOM     36  C   UNL A   1      37.718 -21.057 -33.363  0.00  0.00    -0.060 A 
ATOM     37  C   UNL A   1      38.787 -21.120 -32.482  0.00  0.00    -0.061 A 
ATOM     38  C   UNL A   1      40.090 -21.078 -32.980  0.00  0.00    -0.051 A 
ATOM     39  C   UNL A   1      40.346 -20.978 -34.372  0.00  0.00    +0.023 A 
ATOM     40  C   UNL A   1      40.670 -20.619 -38.620  0.00  0.00    -0.010 C 
ATOM     41  C   UNL A   1      42.018 -20.138 -39.148  0.00  0.00    -0.047 C 
ATOM     42  C   UNL A   1      43.140 -20.941 -38.506  0.00  0.00    -0.049 C 
ATOM     43  C   UNL A   1      43.150 -20.725 -36.993  0.00  0.00    -0.024 C 
ENDBRANCH  28  30
ENDBRANCH  26  28
ENDBRANCH  23  24
ENDBRANCH   1  23
TORSDOF 14
ENDMDL
MODEL 13
REMARK VINA RESULT:    -5.169     19.417     22.961
REMARK INTER + INTRA:         -13.746
REMARK INTER:                 -11.176
REMARK INTRA:                  -2.570
REMARK UNBOUND:                -4.347
REMARK  Name = cpd76.pdb
REMARK  17 active torsions:
REMARK  status: ('A' for Active; 'I' for Inactive)
REMARK    1  A    between atoms: C_1  and  O_2
REMARK    2  A    between atoms: O_2  and  C_3
REMARK    3  A    between atoms: C_5  and  C_6
REMARK    4  A    between atoms: C_6  and  C_7
REMARK    5  A    between atoms: C_7  and  C_8
REMARK    6  A    between atoms: N_10  and  C_11
REMARK    7  A    between atoms: C_11  and  C_12
REMARK    8  A    between atoms: C_12  and  C_13
REMARK    9  A    between atoms: C_13  and  C_14
REMARK   10  A    between atoms: C_14  and  C_15
REMARK   11  A    between atoms: C_15  and  C_16
REMARK   12  A    between atoms: N_18  and  N_19
REMARK   13  A    between atoms: N_19  and  C_20
REMARK   14  A    between atoms: C_35  and  O_36
REMARK   15  A    between atoms: O_36  and  C_37
REMARK   16  A    between atoms: C_38  and  O_39
REMARK   17  A    between atoms: O_39  and  C_40
REMARK                            x       y       z     vdW  Elec       q    Type
REMARK                         _______ _______ _______ _____ _____    ______ ____
ROOT
ATOM      1  C   UNL A   1      45.585 -19.972 -36.803  0.00  0.00    -0.045 C 
ENDROOT
BRANCH   1   2
ATOM      2  C   UNL A   1      45.807 -20.095 -38.315  0.00  0.00    -0.051 C 
BRANCH   2   3
ATOM      3  C   UNL A   1      47.028 -20.962 -38.626  0.00  0.00    -0.037 C 
BRANCH   3   4
ATOM      4  C   UNL A   1      46.800 -21.839 -39.856  0.00  0.00    +0.012 C 
BRANCH   4   7
ATOM      5  C   UNL A   1      45.390 -20.627 -41.474  0.00  0.00    +0.213 C 
ATOM      6  O   UNL A   1      46.343 -20.044 -41.980  0.00  0.00    -0.276 OA
ATOM      7  N   UNL A   1      45.517 -21.561 -40.470  0.00  0.00    -0.315 N 
ATOM      8  H   UNL A   1      44.720 -22.052 -40.164  0.00  0.00    +0.000 HD
BRANCH   5   9
ATOM      9  C   UNL A   1      43.966 -20.355 -41.905  0.00  0.00    +0.028 C 
BRANCH   9  10
ATOM     10  C   UNL A   1      42.979 -21.144 -41.049  0.00  0.00    -0.019 C 
BRANCH  10  13
ATOM     11  C   UNL A   1      42.337 -18.318 -38.560  0.00  0.00    +0.165 A 
ATOM     12  C   UNL A   1      42.714 -19.004 -39.719  0.00  0.00    -0.013 A 
ATOM     13  C   UNL A   1      42.567 -20.397 -39.804  0.00  0.00    -0.040 A 
ATOM     14  C   UNL A   1      42.032 -21.104 -38.714  0.00  0.00    -0.013 A 
ATOM     15  C   UNL A   1      41.641 -20.440 -37.549  0.00  0.00    +0.165 A 
ATOM     16  C   UNL A   1      41.815 -19.048 -37.477  0.00  0.00    +0.204 A 
BRANCH  11  18
ATOM     17  C   UNL A   1      43.757 -16.431 -38.206  0.00  0.00    +0.079 C 
ATOM     18  O   UNL A   1      42.452 -16.964 -38.377  0.00  0.00    -0.491 OA
ENDBRANCH  11  18
BRANCH  15  19
ATOM     19  O   UNL A   1      41.091 -21.048 -36.451  0.00  0.00    -0.491 OA
ATOM     20  C   UNL A   1      41.245 -22.455 -36.332  0.00  0.00    +0.079 C 
ENDBRANCH  15  19
BRANCH  16  21
ATOM     21  O   UNL A   1      41.405 -18.355 -36.358  0.00  0.00    -0.488 OA
ATOM     22  C   UNL A   1      40.029 -18.000 -36.476  0.00  0.00    +0.079 C 
ENDBRANCH  16  21
ENDBRANCH  10  13
ENDBRANCH   9  10
ENDBRANCH   5   9
ENDBRANCH   4   7
ENDBRANCH   3   4
ENDBRANCH   2   3
ENDBRANCH   1   2
BRANCH   1  23
ATOM     23  C   UNL A   1      46.605 -19.044 -36.146  0.00  0.00    +0.025 C 
BRANCH  23  24
ATOM     24  C   UNL A   1      46.252 -18.720 -34.708  0.00  0.00    +0.229 C 
ATOM     25  O   UNL A   1      46.995 -18.102 -33.949  0.00  0.00    -0.274 OA
ATOM     26  N   UNL A   1      44.981 -19.128 -34.347  0.00  0.00    -0.236 N 
ATOM     27  H   UNL A   1      44.334 -19.454 -35.014  0.00  0.00    +0.000 HD
BRANCH  26  28
ATOM     28  N   UNL A   1      44.653 -19.054 -32.971  0.00  0.00    -0.264 N 
ATOM     29  H   UNL A   1      45.198 -19.425 -32.239  0.00  0.00    +0.000 HD
BRANCH  28  30
ATOM     30  C   UNL A   1      43.415 -18.360 -32.804  0.00  0.00    +0.058 A 
ATOM     31  C   UNL A   1      42.223 -19.111 -32.849  0.00  0.00    -0.003 A 
ATOM     32  C   UNL A   1      41.016 -18.418 -32.785  0.00  0.00    +0.047 A 
ATOM     33  N   UNL A   1      40.947 -17.072 -32.658  0.00  0.00    -0.251 NA
ATOM     34  C   UNL A   1      42.080 -16.359 -32.617  0.00  0.00    +0.073 A 
ATOM     35  C   UNL A   1      41.972 -14.979 -32.500  0.00  0.00    -0.036 A 
ATOM     36  C   UNL A   1      43.093 -14.148 -32.466  0.00  0.00    -0.060 A 
ATOM     37  C   UNL A   1      44.360 -14.705 -32.555  0.00  0.00    -0.061 A 
ATOM     38  C   UNL A   1      44.494 -16.089 -32.672  0.00  0.00    -0.051 A 
ATOM     39  C   UNL A   1      43.360 -16.942 -32.698  0.00  0.00    +0.023 A 
ATOM     40  C   UNL A   1      39.689 -19.133 -32.791  0.00  0.00    -0.010 C 
ATOM     41  C   UNL A   1      39.773 -20.551 -33.346  0.00  0.00    -0.047 C 
ATOM     42  C   UNL A   1      40.925 -21.297 -32.687  0.00  0.00    -0.049 C 
ATOM     43  C   UNL A   1      42.254 -20.613 -33.006  0.00  0.00    -0.024 C 
ENDBRANCH  28  30
ENDBRANCH  26  28
ENDBRANCH  23  24
ENDBRANCH   1  23
TORSDOF 14
ENDMDL
MODEL 14
REMARK VINA RESULT:    -5.114     19.089     22.906
REMARK INTER + INTRA:         -13.646
REMARK INTER:                 -10.748
REMARK INTRA:                  -2.898
REMARK UNBOUND:                -4.347
REMARK  Name = cpd76.pdb
REMARK  17 active torsions:
REMARK  status: ('A' for Active; 'I' for Inactive)
REMARK    1  A    between atoms: C_1  and  O_2
REMARK    2  A    between atoms: O_2  and  C_3
REMARK    3  A    between atoms: C_5  and  C_6
REMARK    4  A    between atoms: C_6  and  C_7
REMARK    5  A    between atoms: C_7  and  C_8
REMARK    6  A    between atoms: N_10  and  C_11
REMARK    7  A    between atoms: C_11  and  C_12
REMARK    8  A    between atoms: C_12  and  C_13
REMARK    9  A    between atoms: C_13  and  C_14
REMARK   10  A    between atoms: C_14  and  C_15
REMARK   11  A    between atoms: C_15  and  C_16
REMARK   12  A    between atoms: N_18  and  N_19
REMARK   13  A    between atoms: N_19  and  C_20
REMARK   14  A    between atoms: C_35  and  O_36
REMARK   15  A    between atoms: O_36  and  C_37
REMARK   16  A    between atoms: C_38  and  O_39
REMARK   17  A    between atoms: O_39  and  C_40
REMARK                            x       y       z     vdW  Elec       q    Type
REMARK                         _______ _______ _______ _____ _____    ______ ____
ROOT
ATOM      1  C   UNL A   1      40.306 -22.550 -33.144  0.00  0.00    -0.045 C 
ENDROOT
BRANCH   1   2
ATOM      2  C   UNL A   1      38.965 -23.235 -33.436  0.00  0.00    -0.051 C 
BRANCH   2   3
ATOM      3  C   UNL A   1      38.342 -22.703 -34.727  0.00  0.00    -0.037 C 
BRANCH   3   4
ATOM      4  C   UNL A   1      39.165 -23.093 -35.954  0.00  0.00    +0.012 C 
BRANCH   4   7
ATOM      5  C   UNL A   1      40.587 -22.038 -37.668  0.00  0.00    +0.213 C 
ATOM      6  O   UNL A   1      40.918 -23.111 -38.160  0.00  0.00    -0.276 OA
ATOM      7  N   UNL A   1      39.694 -21.923 -36.627  0.00  0.00    -0.315 N 
ATOM      8  H   UNL A   1      39.409 -21.028 -36.332  0.00  0.00    +0.000 HD
BRANCH   5   9
ATOM      9  C   UNL A   1      41.150 -20.725 -38.164  0.00  0.00    +0.028 C 
BRANCH   9  10
ATOM     10  C   UNL A   1      41.862 -20.910 -39.502  0.00  0.00    -0.019 C 
BRANCH  10  13
ATOM     11  C   UNL A   1      44.681 -18.387 -38.971  0.00  0.00    +0.165 A 
ATOM     12  C   UNL A   1      43.423 -18.997 -38.934  0.00  0.00    -0.013 A 
ATOM     13  C   UNL A   1      43.220 -20.250 -39.532  0.00  0.00    -0.040 A 
ATOM     14  C   UNL A   1      44.292 -20.897 -40.167  0.00  0.00    -0.013 A 
ATOM     15  C   UNL A   1      45.560 -20.311 -40.210  0.00  0.00    +0.165 A 
ATOM     16  C   UNL A   1      45.738 -19.047 -39.623  0.00  0.00    +0.204 A 
BRANCH  11  18
ATOM     17  C   UNL A   1      43.914 -16.429 -37.840  0.00  0.00    +0.079 C 
ATOM     18  O   UNL A   1      44.977 -17.164 -38.428  0.00  0.00    -0.491 OA
ENDBRANCH  11  18
BRANCH  15  19
ATOM     19  O   UNL A   1      46.664 -20.881 -40.788  0.00  0.00    -0.491 OA
ATOM     20  C   UNL A   1      47.025 -22.189 -40.369  0.00  0.00    +0.079 C 
ENDBRANCH  15  19
BRANCH  16  21
ATOM     21  O   UNL A   1      46.984 -18.457 -39.613  0.00  0.00    -0.488 OA
ATOM     22  C   UNL A   1      47.171 -17.683 -40.796  0.00  0.00    +0.079 C 
ENDBRANCH  16  21
ENDBRANCH  10  13
ENDBRANCH   9  10
ENDBRANCH   5   9
ENDBRANCH   4   7
ENDBRANCH   3   4
ENDBRANCH   2   3
ENDBRANCH   1   2
BRANCH   1  23
ATOM     23  C   UNL A   1      40.128 -21.094 -32.720  0.00  0.00    +0.025 C 
BRANCH  23  24
ATOM     24  C   UNL A   1      40.506 -20.121 -33.817  0.00  0.00    +0.229 C 
ATOM     25  O   UNL A   1      39.690 -19.426 -34.421  0.00  0.00    -0.274 OA
ATOM     26  N   UNL A   1      41.869 -20.035 -34.033  0.00  0.00    -0.236 N 
ATOM     27  H   UNL A   1      42.516 -20.457 -33.423  0.00  0.00    +0.000 HD
BRANCH  26  28
ATOM     28  N   UNL A   1      42.291 -19.313 -35.176  0.00  0.00    -0.264 N 
ATOM     29  H   UNL A   1      41.904 -19.404 -36.078  0.00  0.00    +0.000 HD
BRANCH  28  30
ATOM     30  C   UNL A   1      43.359 -18.431 -34.826  0.00  0.00    +0.058 A 
ATOM     31  C   UNL A   1      44.681 -18.864 -35.063  0.00  0.00    -0.003 A 
ATOM     32  C   UNL A   1      45.720 -18.044 -34.628  0.00  0.00    +0.047 A 
ATOM     33  N   UNL A   1      45.512 -16.854 -34.019  0.00  0.00    -0.251 NA
ATOM     34  C   UNL A   1      44.257 -16.444 -33.792  0.00  0.00    +0.073 A 
ATOM     35  C   UNL A   1      44.080 -15.224 -33.153  0.00  0.00    -0.036 A 
ATOM     36  C   UNL A   1      42.812 -14.719 -32.857  0.00  0.00    -0.060 A 
ATOM     37  C   UNL A   1      41.687 -15.451 -33.204  0.00  0.00    -0.061 A 
ATOM     38  C   UNL A   1      41.839 -16.679 -33.849  0.00  0.00    -0.051 A 
ATOM     39  C   UNL A   1      43.123 -17.195 -34.162  0.00  0.00    +0.023 A 
ATOM     40  C   UNL A   1      47.164 -18.403 -34.866  0.00  0.00    -0.010 C 
ATOM     41  C   UNL A   1      47.377 -19.885 -35.154  0.00  0.00    -0.047 C 
ATOM     42  C   UNL A   1      46.395 -20.350 -36.219  0.00  0.00    -0.049 C 
ATOM     43  C   UNL A   1      44.958 -20.193 -35.725  0.00  0.00    -0.024 C 
ENDBRANCH  28  30
ENDBRANCH  26  28
ENDBRANCH  23  24
ENDBRANCH   1  23
TORSDOF 14
ENDMDL
MODEL 15
REMARK VINA RESULT:    -5.096     20.493     24.235
REMARK INTER + INTRA:         -13.613
REMARK INTER:                  -9.141
REMARK INTRA:                  -4.472
REMARK UNBOUND:                -4.347
REMARK  Name = cpd76.pdb
REMARK  17 active torsions:
REMARK  status: ('A' for Active; 'I' for Inactive)
REMARK    1  A    between atoms: C_1  and  O_2
REMARK    2  A    between atoms: O_2  and  C_3
REMARK    3  A    between atoms: C_5  and  C_6
REMARK    4  A    between atoms: C_6  and  C_7
REMARK    5  A    between atoms: C_7  and  C_8
REMARK    6  A    between atoms: N_10  and  C_11
REMARK    7  A    between atoms: C_11  and  C_12
REMARK    8  A    between atoms: C_12  and  C_13
REMARK    9  A    between atoms: C_13  and  C_14
REMARK   10  A    between atoms: C_14  and  C_15
REMARK   11  A    between atoms: C_15  and  C_16
REMARK   12  A    between atoms: N_18  and  N_19
REMARK   13  A    between atoms: N_19  and  C_20
REMARK   14  A    between atoms: C_35  and  O_36
REMARK   15  A    between atoms: O_36  and  C_37
REMARK   16  A    between atoms: C_38  and  O_39
REMARK   17  A    between atoms: O_39  and  C_40
REMARK                            x       y       z     vdW  Elec       q    Type
REMARK                         _______ _______ _______ _____ _____    ______ ____
ROOT
ATOM      1  C   UNL A   1      45.961 -16.509 -37.337  0.00  0.00    -0.045 C 
ENDROOT
BRANCH   1   2
ATOM      2  C   UNL A   1      47.055 -15.992 -38.279  0.00  0.00    -0.051 C 
BRANCH   2   3
ATOM      3  C   UNL A   1      47.217 -16.905 -39.494  0.00  0.00    -0.037 C 
BRANCH   3   4
ATOM      4  C   UNL A   1      46.503 -16.342 -40.723  0.00  0.00    +0.012 C 
BRANCH   4   7
ATOM      5  C   UNL A   1      44.141 -15.675 -40.506  0.00  0.00    +0.213 C 
ATOM      6  O   UNL A   1      44.408 -14.480 -40.440  0.00  0.00    -0.276 OA
ATOM      7  N   UNL A   1      45.088 -16.655 -40.700  0.00  0.00    -0.315 N 
ATOM      8  H   UNL A   1      44.799 -17.588 -40.825  0.00  0.00    +0.000 HD
BRANCH   5   9
ATOM      9  C   UNL A   1      42.724 -16.186 -40.366  0.00  0.00    +0.028 C 
BRANCH   9  10
ATOM     10  C   UNL A   1      42.707 -17.564 -39.709  0.00  0.00    -0.019 C 
BRANCH  10  13
ATOM     11  C   UNL A   1      39.499 -17.910 -37.665  0.00  0.00    +0.165 A 
ATOM     12  C   UNL A   1      40.380 -17.849 -38.749  0.00  0.00    -0.013 A 
ATOM     13  C   UNL A   1      41.752 -17.637 -38.543  0.00  0.00    -0.040 A 
ATOM     14  C   UNL A   1      42.240 -17.489 -37.234  0.00  0.00    -0.013 A 
ATOM     15  C   UNL A   1      41.381 -17.553 -36.135  0.00  0.00    +0.165 A 
ATOM     16  C   UNL A   1      40.008 -17.746 -36.364  0.00  0.00    +0.204 A 
BRANCH  11  18
ATOM     17  C   UNL A   1      37.368 -17.043 -38.305  0.00  0.00    +0.079 C 
ATOM     18  O   UNL A   1      38.145 -18.100 -37.764  0.00  0.00    -0.491 OA
ENDBRANCH  11  18
BRANCH  15  19
ATOM     19  O   UNL A   1      41.775 -17.441 -34.827  0.00  0.00    -0.491 OA
ATOM     20  C   UNL A   1      43.161 -17.577 -34.544  0.00  0.00    +0.079 C 
ENDBRANCH  15  19
BRANCH  16  21
ATOM     21  O   UNL A   1      39.136 -17.853 -35.301  0.00  0.00    -0.488 OA
ATOM     22  C   UNL A   1      39.129 -19.189 -34.803  0.00  0.00    +0.079 C 
ENDBRANCH  16  21
ENDBRANCH  10  13
ENDBRANCH   9  10
ENDBRANCH   5   9
ENDBRANCH   4   7
ENDBRANCH   3   4
ENDBRANCH   2   3
ENDBRANCH   1   2
BRANCH   1  23
ATOM     23  C   UNL A   1      46.539 -17.271 -36.147  0.00  0.00    +0.025 C 
BRANCH  23  24
ATOM     24  C   UNL A   1      46.463 -18.773 -36.328  0.00  0.00    +0.229 C 
ATOM     25  O   UNL A   1      47.165 -19.569 -35.708  0.00  0.00    -0.274 OA
ATOM     26  N   UNL A   1      45.476 -19.173 -37.211  0.00  0.00    -0.236 N 
ATOM     27  H   UNL A   1      44.805 -18.541 -37.556  0.00  0.00    +0.000 HD
BRANCH  26  28
ATOM     28  N   UNL A   1      45.478 -20.536 -37.595  0.00  0.00    -0.264 N 
ATOM     29  H   UNL A   1      46.106 -21.218 -37.262  0.00  0.00    +0.000 HD
BRANCH  28  30
ATOM     30  C   UNL A   1      44.431 -20.775 -38.539  0.00  0.00    +0.058 A 
ATOM     31  C   UNL A   1      44.733 -20.647 -39.911  0.00  0.00    -0.003 A 
ATOM     32  C   UNL A   1      43.688 -20.783 -40.821  0.00  0.00    +0.047 A 
ATOM     33  N   UNL A   1      42.416 -21.054 -40.446  0.00  0.00    -0.251 NA
ATOM     34  C   UNL A   1      42.129 -21.174 -39.142  0.00  0.00    +0.073 A 
ATOM     35  C   UNL A   1      40.812 -21.439 -38.792  0.00  0.00    -0.036 A 
ATOM     36  C   UNL A   1      40.410 -21.564 -37.461  0.00  0.00    -0.060 A 
ATOM     37  C   UNL A   1      41.346 -21.418 -36.448  0.00  0.00    -0.061 A 
ATOM     38  C   UNL A   1      42.675 -21.153 -36.775  0.00  0.00    -0.051 A 
ATOM     39  C   UNL A   1      43.094 -21.033 -38.125  0.00  0.00    +0.023 A 
ATOM     40  C   UNL A   1      43.916 -20.697 -42.309  0.00  0.00    -0.010 C 
ATOM     41  C   UNL A   1      45.217 -19.992 -42.678  0.00  0.00    -0.047 C 
ATOM     42  C   UNL A   1      46.366 -20.569 -41.864  0.00  0.00    -0.049 C 
ATOM     43  C   UNL A   1      46.136 -20.328 -40.373  0.00  0.00    -0.024 C 
ENDBRANCH  28  30
ENDBRANCH  26  28
ENDBRANCH  23  24
ENDBRANCH   1  23
TORSDOF 14
ENDMDL
MODEL 16
REMARK VINA RESULT:    -5.060     19.288     23.041
REMARK INTER + INTRA:         -13.549
REMARK INTER:                 -10.097
REMARK INTRA:                  -3.452
REMARK UNBOUND:                -4.347
REMARK  Name = cpd76.pdb
REMARK  17 active torsions:
REMARK  status: ('A' for Active; 'I' for Inactive)
REMARK    1  A    between atoms: C_1  and  O_2
REMARK    2  A    between atoms: O_2  and  C_3
REMARK    3  A    between atoms: C_5  and  C_6
REMARK    4  A    between atoms: C_6  and  C_7
REMARK    5  A    between atoms: C_7  and  C_8
REMARK    6  A    between atoms: N_10  and  C_11
REMARK    7  A    between atoms: C_11  and  C_12
REMARK    8  A    between atoms: C_12  and  C_13
REMARK    9  A    between atoms: C_13  and  C_14
REMARK   10  A    between atoms: C_14  and  C_15
REMARK   11  A    between atoms: C_15  and  C_16
REMARK   12  A    between atoms: N_18  and  N_19
REMARK   13  A    between atoms: N_19  and  C_20
REMARK   14  A    between atoms: C_35  and  O_36
REMARK   15  A    between atoms: O_36  and  C_37
REMARK   16  A    between atoms: C_38  and  O_39
REMARK   17  A    between atoms: O_39  and  C_40
REMARK                            x       y       z     vdW  Elec       q    Type
REMARK                         _______ _______ _______ _____ _____    ______ ____
ROOT
ATOM      1  C   UNL A   1      40.425 -20.164 -38.162  0.00  0.00    -0.045 C 
ENDROOT
BRANCH   1   2
ATOM      2  C   UNL A   1      39.319 -20.704 -37.247  0.00  0.00    -0.051 C 
BRANCH   2   3
ATOM      3  C   UNL A   1      39.211 -22.226 -37.349  0.00  0.00    -0.037 C 
BRANCH   3   4
ATOM      4  C   UNL A   1      39.445 -22.901 -35.998  0.00  0.00    +0.012 C 
BRANCH   4   7
ATOM      5  C   UNL A   1      40.477 -22.170 -33.883  0.00  0.00    +0.213 C 
ATOM      6  O   UNL A   1      39.630 -22.726 -33.192  0.00  0.00    -0.276 OA
ATOM      7  N   UNL A   1      40.503 -22.244 -35.258  0.00  0.00    -0.315 N 
ATOM      8  H   UNL A   1      41.257 -21.842 -35.748  0.00  0.00    +0.000 HD
BRANCH   5   9
ATOM      9  C   UNL A   1      41.577 -21.330 -33.275  0.00  0.00    +0.028 C 
BRANCH   9  10
ATOM     10  C   UNL A   1      42.383 -20.622 -34.362  0.00  0.00    -0.019 C 
BRANCH  10  13
ATOM     11  C   UNL A   1      43.358 -17.265 -32.821  0.00  0.00    +0.165 A 
ATOM     12  C   UNL A   1      43.257 -18.642 -33.045  0.00  0.00    -0.013 A 
ATOM     13  C   UNL A   1      42.502 -19.137 -34.119  0.00  0.00    -0.040 A 
ATOM     14  C   UNL A   1      41.847 -18.238 -34.978  0.00  0.00    -0.013 A 
ATOM     15  C   UNL A   1      41.940 -16.858 -34.779  0.00  0.00    +0.165 A 
ATOM     16  C   UNL A   1      42.684 -16.384 -33.686  0.00  0.00    +0.204 A 
BRANCH  11  18
ATOM     17  C   UNL A   1      45.470 -16.838 -31.793  0.00  0.00    +0.079 C 
ATOM     18  O   UNL A   1      44.059 -16.686 -31.795  0.00  0.00    -0.491 OA
ENDBRANCH  11  18
BRANCH  15  19
ATOM     19  O   UNL A   1      41.353 -15.913 -35.579  0.00  0.00    -0.491 OA
ATOM     20  C   UNL A   1      39.943 -15.976 -35.745  0.00  0.00    +0.079 C 
ENDBRANCH  15  19
BRANCH  16  21
ATOM     21  O   UNL A   1      42.829 -15.028 -33.482  0.00  0.00    -0.488 OA
ATOM     22  C   UNL A   1      43.891 -14.520 -34.286  0.00  0.00    +0.079 C 
ENDBRANCH  16  21
ENDBRANCH  10  13
ENDBRANCH   9  10
ENDBRANCH   5   9
ENDBRANCH   4   7
ENDBRANCH   3   4
ENDBRANCH   2   3
ENDBRANCH   1   2
BRANCH   1  23
ATOM     23  C   UNL A   1      40.306 -18.657 -38.381  0.00  0.00    +0.025 C 
BRANCH  23  24
ATOM     24  C   UNL A   1      41.623 -18.023 -38.777  0.00  0.00    +0.229 C 
ATOM     25  O   UNL A   1      41.831 -16.812 -38.745  0.00  0.00    -0.274 OA
ATOM     26  N   UNL A   1      42.599 -18.943 -39.117  0.00  0.00    -0.236 N 
ATOM     27  H   UNL A   1      42.475 -19.907 -38.962  0.00  0.00    +0.000 HD
BRANCH  26  28
ATOM     28  N   UNL A   1      43.784 -18.431 -39.698  0.00  0.00    -0.264 N 
ATOM     29  H   UNL A   1      43.821 -17.708 -40.365  0.00  0.00    +0.000 HD
BRANCH  28  30
ATOM     30  C   UNL A   1      44.919 -19.122 -39.172  0.00  0.00    +0.058 A 
ATOM     31  C   UNL A   1      45.455 -20.188 -39.924  0.00  0.00    -0.003 A 
ATOM     32  C   UNL A   1      46.498 -20.920 -39.361  0.00  0.00    +0.047 A 
ATOM     33  N   UNL A   1      47.025 -20.635 -38.147  0.00  0.00    -0.251 NA
ATOM     34  C   UNL A   1      46.515 -19.623 -37.432  0.00  0.00    +0.073 A 
ATOM     35  C   UNL A   1      47.072 -19.366 -36.186  0.00  0.00    -0.036 A 
ATOM     36  C   UNL A   1      46.599 -18.345 -35.359  0.00  0.00    -0.060 A 
ATOM     37  C   UNL A   1      45.540 -17.558 -35.784  0.00  0.00    -0.061 A 
ATOM     38  C   UNL A   1      44.965 -17.796 -37.032  0.00  0.00    -0.051 A 
ATOM     39  C   UNL A   1      45.445 -18.825 -37.883  0.00  0.00    +0.023 A 
ATOM     40  C   UNL A   1      47.158 -22.055 -40.100  0.00  0.00    -0.010 C 
ATOM     41  C   UNL A   1      46.303 -22.615 -41.232  0.00  0.00    -0.047 C 
ATOM     42  C   UNL A   1      45.782 -21.476 -42.096  0.00  0.00    -0.049 C 
ATOM     43  C   UNL A   1      44.885 -20.551 -41.275  0.00  0.00    -0.024 C 
ENDBRANCH  28  30
ENDBRANCH  26  28
ENDBRANCH  23  24
ENDBRANCH   1  23
TORSDOF 14
ENDMDL
MODEL 17
REMARK VINA RESULT:    -5.049     19.220     23.051
REMARK INTER + INTRA:         -13.529
REMARK INTER:                  -8.757
REMARK INTRA:                  -4.772
REMARK UNBOUND:                -4.347
REMARK  Name = cpd76.pdb
REMARK  17 active torsions:
REMARK  status: ('A' for Active; 'I' for Inactive)
REMARK    1  A    between atoms: C_1  and  O_2
REMARK    2  A    between atoms: O_2  and  C_3
REMARK    3  A    between atoms: C_5  and  C_6
REMARK    4  A    between atoms: C_6  and  C_7
REMARK    5  A    between atoms: C_7  and  C_8
REMARK    6  A    between atoms: N_10  and  C_11
REMARK    7  A    between atoms: C_11  and  C_12
REMARK    8  A    between atoms: C_12  and  C_13
REMARK    9  A    between atoms: C_13  and  C_14
REMARK   10  A    between atoms: C_14  and  C_15
REMARK   11  A    between atoms: C_15  and  C_16
REMARK   12  A    between atoms: N_18  and  N_19
REMARK   13  A    between atoms: N_19  and  C_20
REMARK   14  A    between atoms: C_35  and  O_36
REMARK   15  A    between atoms: O_36  and  C_37
REMARK   16  A    between atoms: C_38  and  O_39
REMARK   17  A    between atoms: O_39  and  C_40
REMARK                            x       y       z     vdW  Elec       q    Type
REMARK                         _______ _______ _______ _____ _____    ______ ____
ROOT
ATOM      1  C   UNL A   1      46.277 -17.225 -35.718  0.00  0.00    -0.045 C 
ENDROOT
BRANCH   1   2
ATOM      2  C   UNL A   1      45.769 -17.047 -37.154  0.00  0.00    -0.051 C 
BRANCH   2   3
ATOM      3  C   UNL A   1      46.739 -16.206 -37.984  0.00  0.00    -0.037 C 
BRANCH   3   4
ATOM      4  C   UNL A   1      46.023 -15.467 -39.114  0.00  0.00    +0.012 C 
BRANCH   4   7
ATOM      5  C   UNL A   1      43.906 -15.573 -40.371  0.00  0.00    +0.213 C 
ATOM      6  O   UNL A   1      44.324 -14.862 -41.279  0.00  0.00    -0.276 OA
ATOM      7  N   UNL A   1      44.677 -15.969 -39.300  0.00  0.00    -0.315 N 
ATOM      8  H   UNL A   1      44.305 -16.607 -38.648  0.00  0.00    +0.000 HD
BRANCH   5   9
ATOM      9  C   UNL A   1      42.480 -16.076 -40.341  0.00  0.00    +0.028 C 
BRANCH   9  10
ATOM     10  C   UNL A   1      42.413 -17.487 -39.762  0.00  0.00    -0.019 C 
BRANCH  10  13
ATOM     11  C   UNL A   1      39.195 -17.902 -37.747  0.00  0.00    +0.165 A 
ATOM     12  C   UNL A   1      40.082 -17.812 -38.824  0.00  0.00    -0.013 A 
ATOM     13  C   UNL A   1      41.451 -17.592 -38.604  0.00  0.00    -0.040 A 
ATOM     14  C   UNL A   1      41.930 -17.467 -37.289  0.00  0.00    -0.013 A 
ATOM     15  C   UNL A   1      41.064 -17.561 -36.198  0.00  0.00    +0.165 A 
ATOM     16  C   UNL A   1      39.694 -17.761 -36.439  0.00  0.00    +0.204 A 
BRANCH  11  18
ATOM     17  C   UNL A   1      37.127 -17.278 -38.764  0.00  0.00    +0.079 C 
ATOM     18  O   UNL A   1      37.843 -18.103 -37.858  0.00  0.00    -0.491 OA
ENDBRANCH  11  18
BRANCH  15  19
ATOM     19  O   UNL A   1      41.449 -17.472 -34.885  0.00  0.00    -0.491 OA
ATOM     20  C   UNL A   1      41.822 -16.192 -34.395  0.00  0.00    +0.079 C 
ENDBRANCH  15  19
BRANCH  16  21
ATOM     21  O   UNL A   1      38.816 -17.897 -35.385  0.00  0.00    -0.488 OA
ATOM     22  C   UNL A   1      38.220 -16.640 -35.076  0.00  0.00    +0.079 C 
ENDBRANCH  16  21
ENDBRANCH  10  13
ENDBRANCH   9  10
ENDBRANCH   5   9
ENDBRANCH   4   7
ENDBRANCH   3   4
ENDBRANCH   2   3
ENDBRANCH   1   2
BRANCH   1  23
ATOM     23  C   UNL A   1      45.164 -17.646 -34.762  0.00  0.00    +0.025 C 
BRANCH  23  24
ATOM     24  C   UNL A   1      44.949 -19.146 -34.747  0.00  0.00    +0.229 C 
ATOM     25  O   UNL A   1      45.850 -19.963 -34.923  0.00  0.00    -0.274 OA
ATOM     26  N   UNL A   1      43.649 -19.514 -34.450  0.00  0.00    -0.236 N 
ATOM     27  H   UNL A   1      42.986 -18.859 -34.133  0.00  0.00    +0.000 HD
BRANCH  26  28
ATOM     28  N   UNL A   1      43.317 -20.880 -34.623  0.00  0.00    -0.264 N 
ATOM     29  H   UNL A   1      43.839 -21.638 -34.273  0.00  0.00    +0.000 HD
BRANCH  28  30
ATOM     30  C   UNL A   1      42.111 -20.993 -35.381  0.00  0.00    +0.058 A 
ATOM     31  C   UNL A   1      40.898 -21.148 -34.678  0.00  0.00    -0.003 A 
ATOM     32  C   UNL A   1      39.738 -21.357 -35.421  0.00  0.00    +0.047 A 
ATOM     33  N   UNL A   1      39.729 -21.392 -36.774  0.00  0.00    -0.251 NA
ATOM     34  C   UNL A   1      40.882 -21.246 -37.442  0.00  0.00    +0.073 A 
ATOM     35  C   UNL A   1      40.837 -21.300 -38.829  0.00  0.00    -0.036 A 
ATOM     36  C   UNL A   1      41.986 -21.177 -39.612  0.00  0.00    -0.060 A 
ATOM     37  C   UNL A   1      43.215 -20.998 -38.998  0.00  0.00    -0.061 A 
ATOM     38  C   UNL A   1      43.286 -20.939 -37.606  0.00  0.00    -0.051 A 
ATOM     39  C   UNL A   1      42.122 -21.054 -36.802  0.00  0.00    +0.023 A 
ATOM     40  C   UNL A   1      38.390 -21.499 -34.763  0.00  0.00    -0.010 C 
ATOM     41  C   UNL A   1      38.477 -21.874 -33.288  0.00  0.00    -0.047 C 
ATOM     42  C   UNL A   1      39.466 -20.960 -32.580  0.00  0.00    -0.049 C 
ATOM     43  C   UNL A   1      40.866 -21.132 -33.168  0.00  0.00    -0.024 C 
ENDBRANCH  28  30
ENDBRANCH  26  28
ENDBRANCH  23  24
ENDBRANCH   1  23
TORSDOF 14
ENDMDL
MODEL 18
REMARK VINA RESULT:    -5.038     19.228     22.895
REMARK INTER + INTRA:         -13.508
REMARK INTER:                 -10.645
REMARK INTRA:                  -2.863
REMARK UNBOUND:                -4.347
REMARK  Name = cpd76.pdb
REMARK  17 active torsions:
REMARK  status: ('A' for Active; 'I' for Inactive)
REMARK    1  A    between atoms: C_1  and  O_2
REMARK    2  A    between atoms: O_2  and  C_3
REMARK    3  A    between atoms: C_5  and  C_6
REMARK    4  A    between atoms: C_6  and  C_7
REMARK    5  A    between atoms: C_7  and  C_8
REMARK    6  A    between atoms: N_10  and  C_11
REMARK    7  A    between atoms: C_11  and  C_12
REMARK    8  A    between atoms: C_12  and  C_13
REMARK    9  A    between atoms: C_13  and  C_14
REMARK   10  A    between atoms: C_14  and  C_15
REMARK   11  A    between atoms: C_15  and  C_16
REMARK   12  A    between atoms: N_18  and  N_19
REMARK   13  A    between atoms: N_19  and  C_20
REMARK   14  A    between atoms: C_35  and  O_36
REMARK   15  A    between atoms: O_36  and  C_37
REMARK   16  A    between atoms: C_38  and  O_39
REMARK   17  A    between atoms: O_39  and  C_40
REMARK                            x       y       z     vdW  Elec       q    Type
REMARK                         _______ _______ _______ _____ _____    ______ ____
ROOT
ATOM      1  C   UNL A   1      40.451 -20.321 -37.924  0.00  0.00    -0.045 C 
ENDROOT
BRANCH   1   2
ATOM      2  C   UNL A   1      39.380 -20.811 -36.941  0.00  0.00    -0.051 C 
BRANCH   2   3
ATOM      3  C   UNL A   1      39.236 -22.332 -36.994  0.00  0.00    -0.037 C 
BRANCH   3   4
ATOM      4  C   UNL A   1      39.271 -22.952 -35.598  0.00  0.00    +0.012 C 
BRANCH   4   7
ATOM      5  C   UNL A   1      40.148 -22.226 -33.412  0.00  0.00    +0.213 C 
ATOM      6  O   UNL A   1      39.207 -22.710 -32.791  0.00  0.00    -0.276 OA
ATOM      7  N   UNL A   1      40.296 -22.340 -34.776  0.00  0.00    -0.315 N 
ATOM      8  H   UNL A   1      41.115 -21.998 -35.202  0.00  0.00    +0.000 HD
BRANCH   5   9
ATOM      9  C   UNL A   1      41.238 -21.437 -32.722  0.00  0.00    +0.028 C 
BRANCH   9  10
ATOM     10  C   UNL A   1      42.246 -20.903 -33.737  0.00  0.00    -0.019 C 
BRANCH  10  13
ATOM     11  C   UNL A   1      43.167 -17.320 -32.782  0.00  0.00    +0.165 A 
ATOM     12  C   UNL A   1      43.102 -18.717 -32.783  0.00  0.00    -0.013 A 
ATOM     13  C   UNL A   1      42.326 -19.395 -33.735  0.00  0.00    -0.040 A 
ATOM     14  C   UNL A   1      41.612 -18.661 -34.697  0.00  0.00    -0.013 A 
ATOM     15  C   UNL A   1      41.667 -17.265 -34.720  0.00  0.00    +0.165 A 
ATOM     16  C   UNL A   1      42.434 -16.605 -33.746  0.00  0.00    +0.204 A 
BRANCH  11  18
ATOM     17  C   UNL A   1      45.245 -16.916 -31.678  0.00  0.00    +0.079 C 
ATOM     18  O   UNL A   1      43.885 -16.569 -31.888  0.00  0.00    -0.491 OA
ENDBRANCH  11  18
BRANCH  15  19
ATOM     19  O   UNL A   1      41.022 -16.473 -35.634  0.00  0.00    -0.491 OA
ATOM     20  C   UNL A   1      39.602 -16.531 -35.668  0.00  0.00    +0.079 C 
ENDBRANCH  15  19
BRANCH  16  21
ATOM     21  O   UNL A   1      42.542 -15.230 -33.763  0.00  0.00    -0.488 OA
ATOM     22  C   UNL A   1      43.678 -14.835 -34.529  0.00  0.00    +0.079 C 
ENDBRANCH  16  21
ENDBRANCH  10  13
ENDBRANCH   9  10
ENDBRANCH   5   9
ENDBRANCH   4   7
ENDBRANCH   3   4
ENDBRANCH   2   3
ENDBRANCH   1   2
BRANCH   1  23
ATOM     23  C   UNL A   1      40.166 -18.908 -38.428  0.00  0.00    +0.025 C 
BRANCH  23  24
ATOM     24  C   UNL A   1      41.426 -18.175 -38.841  0.00  0.00    +0.229 C 
ATOM     25  O   UNL A   1      41.531 -16.950 -38.838  0.00  0.00    -0.274 OA
ATOM     26  N   UNL A   1      42.475 -19.018 -39.160  0.00  0.00    -0.236 N 
ATOM     27  H   UNL A   1      42.433 -19.985 -38.982  0.00  0.00    +0.000 HD
BRANCH  26  28
ATOM     28  N   UNL A   1      43.614 -18.423 -39.755  0.00  0.00    -0.264 N 
ATOM     29  H   UNL A   1      43.598 -17.629 -40.338  0.00  0.00    +0.000 HD
BRANCH  28  30
ATOM     30  C   UNL A   1      44.789 -19.145 -39.383  0.00  0.00    +0.058 A 
ATOM     31  C   UNL A   1      45.440 -18.782 -38.186  0.00  0.00    -0.003 A 
ATOM     32  C   UNL A   1      46.639 -19.422 -37.878  0.00  0.00    +0.047 A 
ATOM     33  N   UNL A   1      47.182 -20.383 -38.661  0.00  0.00    -0.251 NA
ATOM     34  C   UNL A   1      46.563 -20.727 -39.800  0.00  0.00    +0.073 A 
ATOM     35  C   UNL A   1      47.154 -21.708 -40.586  0.00  0.00    -0.036 A 
ATOM     36  C   UNL A   1      46.597 -22.123 -41.796  0.00  0.00    -0.060 A 
ATOM     37  C   UNL A   1      45.419 -21.543 -42.240  0.00  0.00    -0.061 A 
ATOM     38  C   UNL A   1      44.806 -20.556 -41.467  0.00  0.00    -0.051 A 
ATOM     39  C   UNL A   1      45.360 -20.135 -40.231  0.00  0.00    +0.023 A 
ATOM     40  C   UNL A   1      47.391 -19.126 -36.606  0.00  0.00    -0.010 C 
ATOM     41  C   UNL A   1      47.009 -17.791 -35.977  0.00  0.00    -0.047 C 
ATOM     42  C   UNL A   1      45.494 -17.675 -35.892  0.00  0.00    -0.049 C 
ATOM     43  C   UNL A   1      44.879 -17.702 -37.291  0.00  0.00    -0.024 C 
ENDBRANCH  28  30
ENDBRANCH  26  28
ENDBRANCH  23  24
ENDBRANCH   1  23
TORSDOF 14
ENDMDL
MODEL 19
REMARK VINA RESULT:    -5.013     20.722     23.887
REMARK INTER + INTRA:         -13.463
REMARK INTER:                  -9.785
REMARK INTRA:                  -3.677
REMARK UNBOUND:                -4.347
REMARK  Name = cpd76.pdb
REMARK  17 active torsions:
REMARK  status: ('A' for Active; 'I' for Inactive)
REMARK    1  A    between atoms: C_1  and  O_2
REMARK    2  A    between atoms: O_2  and  C_3
REMARK    3  A    between atoms: C_5  and  C_6
REMARK    4  A    between atoms: C_6  and  C_7
REMARK    5  A    between atoms: C_7  and  C_8
REMARK    6  A    between atoms: N_10  and  C_11
REMARK    7  A    between atoms: C_11  and  C_12
REMARK    8  A    between atoms: C_12  and  C_13
REMARK    9  A    between atoms: C_13  and  C_14
REMARK   10  A    between atoms: C_14  and  C_15
REMARK   11  A    between atoms: C_15  and  C_16
REMARK   12  A    between atoms: N_18  and  N_19
REMARK   13  A    between atoms: N_19  and  C_20
REMARK   14  A    between atoms: C_35  and  O_36
REMARK   15  A    between atoms: O_36  and  C_37
REMARK   16  A    between atoms: C_38  and  O_39
REMARK   17  A    between atoms: O_39  and  C_40
REMARK                            x       y       z     vdW  Elec       q    Type
REMARK                         _______ _______ _______ _____ _____    ______ ____
ROOT
ATOM      1  C   UNL A   1      45.873 -18.207 -36.940  0.00  0.00    -0.045 C 
ENDROOT
BRANCH   1   2
ATOM      2  C   UNL A   1      46.917 -18.560 -38.006  0.00  0.00    -0.051 C 
BRANCH   2   3
ATOM      3  C   UNL A   1      47.323 -20.032 -37.917  0.00  0.00    -0.037 C 
BRANCH   3   4
ATOM      4  C   UNL A   1      47.209 -20.732 -39.270  0.00  0.00    +0.012 C 
BRANCH   4   7
ATOM      5  C   UNL A   1      46.116 -19.739 -41.243  0.00  0.00    +0.213 C 
ATOM      6  O   UNL A   1      47.164 -19.655 -41.874  0.00  0.00    -0.276 OA
ATOM      7  N   UNL A   1      46.027 -20.301 -39.989  0.00  0.00    -0.315 N 
ATOM      8  H   UNL A   1      45.142 -20.412 -39.572  0.00  0.00    +0.000 HD
BRANCH   5   9
ATOM      9  C   UNL A   1      44.808 -19.214 -41.793  0.00  0.00    +0.028 C 
BRANCH   9  10
ATOM     10  C   UNL A   1      43.678 -19.410 -40.785  0.00  0.00    -0.019 C 
BRANCH  10  13
ATOM     11  C   UNL A   1      42.270 -16.874 -38.300  0.00  0.00    +0.165 A 
ATOM     12  C   UNL A   1      42.697 -18.079 -38.866  0.00  0.00    -0.013 A 
ATOM     13  C   UNL A   1      43.222 -18.111 -40.167  0.00  0.00    -0.040 A 
ATOM     14  C   UNL A   1      43.320 -16.919 -40.903  0.00  0.00    -0.013 A 
ATOM     15  C   UNL A   1      42.907 -15.701 -40.357  0.00  0.00    +0.165 A 
ATOM     16  C   UNL A   1      42.366 -15.694 -39.060  0.00  0.00    +0.204 A 
BRANCH  11  18
ATOM     17  C   UNL A   1      42.623 -16.796 -35.940  0.00  0.00    +0.079 C 
ATOM     18  O   UNL A   1      41.734 -16.741 -37.045  0.00  0.00    -0.491 OA
ENDBRANCH  11  18
BRANCH  15  19
ATOM     19  O   UNL A   1      42.987 -14.492 -40.996  0.00  0.00    -0.491 OA
ATOM     20  C   UNL A   1      44.280 -13.931 -41.181  0.00  0.00    +0.079 C 
ENDBRANCH  15  19
BRANCH  16  21
ATOM     21  O   UNL A   1      41.984 -14.505 -38.475  0.00  0.00    -0.488 OA
ATOM     22  C   UNL A   1      40.612 -14.238 -38.757  0.00  0.00    +0.079 C 
ENDBRANCH  16  21
ENDBRANCH  10  13
ENDBRANCH   9  10
ENDBRANCH   5   9
ENDBRANCH   4   7
ENDBRANCH   3   4
ENDBRANCH   2   3
ENDBRANCH   1   2
BRANCH   1  23
ATOM     23  C   UNL A   1      46.280 -18.696 -35.551  0.00  0.00    +0.025 C 
BRANCH  23  24
ATOM     24  C   UNL A   1      45.262 -19.643 -34.949  0.00  0.00    +0.229 C 
ATOM     25  O   UNL A   1      45.290 -20.015 -33.778  0.00  0.00    -0.274 OA
ATOM     26  N   UNL A   1      44.254 -20.001 -35.827  0.00  0.00    -0.236 N 
ATOM     27  H   UNL A   1      44.145 -19.554 -36.697  0.00  0.00    +0.000 HD
BRANCH  26  28
ATOM     28  N   UNL A   1      43.387 -21.041 -35.413  0.00  0.00    -0.264 N 
ATOM     29  H   UNL A   1      43.677 -21.904 -35.038  0.00  0.00    +0.000 HD
BRANCH  28  30
ATOM     30  C   UNL A   1      42.028 -20.651 -35.621  0.00  0.00    +0.058 A 
ATOM     31  C   UNL A   1      41.466 -20.858 -36.897  0.00  0.00    -0.003 A 
ATOM     32  C   UNL A   1      40.175 -20.385 -37.123  0.00  0.00    +0.047 A 
ATOM     33  N   UNL A   1      39.441 -19.766 -36.169  0.00  0.00    -0.251 NA
ATOM     34  C   UNL A   1      39.976 -19.568 -34.956  0.00  0.00    +0.073 A 
ATOM     35  C   UNL A   1      39.201 -18.918 -34.005  0.00  0.00    -0.036 A 
ATOM     36  C   UNL A   1      39.674 -18.650 -32.719  0.00  0.00    -0.060 A 
ATOM     37  C   UNL A   1      40.959 -19.037 -32.371  0.00  0.00    -0.061 A 
ATOM     38  C   UNL A   1      41.757 -19.693 -33.308  0.00  0.00    -0.051 A 
ATOM     39  C   UNL A   1      41.280 -19.978 -34.614  0.00  0.00    +0.023 A 
ATOM     40  C   UNL A   1      39.476 -20.588 -38.442  0.00  0.00    -0.010 C 
ATOM     41  C   UNL A   1      40.433 -20.889 -39.591  0.00  0.00    -0.047 C 
ATOM     42  C   UNL A   1      41.404 -21.986 -39.180  0.00  0.00    -0.049 C 
ATOM     43  C   UNL A   1      42.256 -21.529 -37.996  0.00  0.00    -0.024 C 
ENDBRANCH  28  30
ENDBRANCH  26  28
ENDBRANCH  23  24
ENDBRANCH   1  23
TORSDOF 14
ENDMDL
MODEL 20
REMARK VINA RESULT:    -4.954     20.662     24.234
REMARK INTER + INTRA:         -13.355
REMARK INTER:                  -9.174
REMARK INTRA:                  -4.181
REMARK UNBOUND:                -4.347
REMARK  Name = cpd76.pdb
REMARK  17 active torsions:
REMARK  status: ('A' for Active; 'I' for Inactive)
REMARK    1  A    between atoms: C_1  and  O_2
REMARK    2  A    between atoms: O_2  and  C_3
REMARK    3  A    between atoms: C_5  and  C_6
REMARK    4  A    between atoms: C_6  and  C_7
REMARK    5  A    between atoms: C_7  and  C_8
REMARK    6  A    between atoms: N_10  and  C_11
REMARK    7  A    between atoms: C_11  and  C_12
REMARK    8  A    between atoms: C_12  and  C_13
REMARK    9  A    between atoms: C_13  and  C_14
REMARK   10  A    between atoms: C_14  and  C_15
REMARK   11  A    between atoms: C_15  and  C_16
REMARK   12  A    between atoms: N_18  and  N_19
REMARK   13  A    between atoms: N_19  and  C_20
REMARK   14  A    between atoms: C_35  and  O_36
REMARK   15  A    between atoms: O_36  and  C_37
REMARK   16  A    between atoms: C_38  and  O_39
REMARK   17  A    between atoms: O_39  and  C_40
REMARK                            x       y       z     vdW  Elec       q    Type
REMARK                         _______ _______ _______ _____ _____    ______ ____
ROOT
ATOM      1  C   UNL A   1      46.374 -16.426 -37.360  0.00  0.00    -0.045 C 
ENDROOT
BRANCH   1   2
ATOM      2  C   UNL A   1      47.126 -15.858 -38.569  0.00  0.00    -0.051 C 
BRANCH   2   3
ATOM      3  C   UNL A   1      46.850 -16.679 -39.829  0.00  0.00    -0.037 C 
BRANCH   3   4
ATOM      4  C   UNL A   1      45.858 -15.977 -40.755  0.00  0.00    +0.012 C 
BRANCH   4   7
ATOM      5  C   UNL A   1      43.643 -15.413 -39.831  0.00  0.00    +0.213 C 
ATOM      6  O   UNL A   1      43.942 -14.239 -39.636  0.00  0.00    -0.276 OA
ATOM      7  N   UNL A   1      44.491 -16.323 -40.423  0.00  0.00    -0.315 N 
ATOM      8  H   UNL A   1      44.160 -17.229 -40.624  0.00  0.00    +0.000 HD
BRANCH   5   9
ATOM      9  C   UNL A   1      42.301 -15.975 -39.420  0.00  0.00    +0.028 C 
BRANCH   9  10
ATOM     10  C   UNL A   1      42.449 -17.395 -38.880  0.00  0.00    -0.019 C 
BRANCH  10  13
ATOM     11  C   UNL A   1      43.079 -17.534 -35.114  0.00  0.00    +0.165 A 
ATOM     12  C   UNL A   1      43.298 -17.454 -36.493  0.00  0.00    -0.013 A 
ATOM     13  C   UNL A   1      42.219 -17.474 -37.390  0.00  0.00    -0.040 A 
ATOM     14  C   UNL A   1      40.908 -17.572 -36.894  0.00  0.00    -0.013 A 
ATOM     15  C   UNL A   1      40.664 -17.646 -35.521  0.00  0.00    +0.165 A 
ATOM     16  C   UNL A   1      41.759 -17.644 -34.640  0.00  0.00    +0.204 A 
BRANCH  11  18
ATOM     17  C   UNL A   1      44.551 -16.277 -33.716  0.00  0.00    +0.079 C 
ATOM     18  O   UNL A   1      44.064 -17.534 -34.161  0.00  0.00    -0.491 OA
ENDBRANCH  11  18
BRANCH  15  19
ATOM     19  O   UNL A   1      39.419 -17.721 -34.952  0.00  0.00    -0.491 OA
ATOM     20  C   UNL A   1      38.622 -18.855 -35.262  0.00  0.00    +0.079 C 
ENDBRANCH  15  19
BRANCH  16  21
ATOM     21  O   UNL A   1      41.553 -17.677 -33.277  0.00  0.00    -0.488 OA
ATOM     22  C   UNL A   1      41.531 -19.025 -32.816  0.00  0.00    +0.079 C 
ENDBRANCH  16  21
ENDBRANCH  10  13
ENDBRANCH   9  10
ENDBRANCH   5   9
ENDBRANCH   4   7
ENDBRANCH   3   4
ENDBRANCH   2   3
ENDBRANCH   1   2
BRANCH   1  23
ATOM     23  C   UNL A   1      47.276 -17.275 -36.468  0.00  0.00    +0.025 C 
BRANCH  23  24
ATOM     24  C   UNL A   1      46.797 -18.709 -36.356  0.00  0.00    +0.229 C 
ATOM     25  O   UNL A   1      46.987 -19.413 -35.367  0.00  0.00    -0.274 OA
ATOM     26  N   UNL A   1      46.065 -19.132 -37.450  0.00  0.00    -0.236 N 
ATOM     27  H   UNL A   1      45.767 -18.504 -38.147  0.00  0.00    +0.000 HD
BRANCH  26  28
ATOM     28  N   UNL A   1      45.763 -20.514 -37.520  0.00  0.00    -0.264 N 
ATOM     29  H   UNL A   1      46.232 -21.222 -37.020  0.00  0.00    +0.000 HD
BRANCH  28  30
ATOM     30  C   UNL A   1      44.677 -20.728 -38.424  0.00  0.00    +0.058 A 
ATOM     31  C   UNL A   1      44.938 -20.641 -39.807  0.00  0.00    -0.003 A 
ATOM     32  C   UNL A   1      43.857 -20.752 -40.680  0.00  0.00    +0.047 A 
ATOM     33  N   UNL A   1      42.589 -20.962 -40.257  0.00  0.00    -0.251 NA
ATOM     34  C   UNL A   1      42.341 -21.042 -38.943  0.00  0.00    +0.073 A 
ATOM     35  C   UNL A   1      41.026 -21.245 -38.543  0.00  0.00    -0.036 A 
ATOM     36  C   UNL A   1      40.664 -21.326 -37.198  0.00  0.00    -0.060 A 
ATOM     37  C   UNL A   1      41.639 -21.198 -36.220  0.00  0.00    -0.061 A 
ATOM     38  C   UNL A   1      42.967 -20.995 -36.596  0.00  0.00    -0.051 A 
ATOM     39  C   UNL A   1      43.345 -20.922 -37.961  0.00  0.00    +0.023 A 
ATOM     40  C   UNL A   1      44.039 -20.707 -42.175  0.00  0.00    -0.010 C 
ATOM     41  C   UNL A   1      45.355 -20.065 -42.603  0.00  0.00    -0.047 C 
ATOM     42  C   UNL A   1      46.506 -20.673 -41.814  0.00  0.00    -0.049 C 
ATOM     43  C   UNL A   1      46.336 -20.392 -40.321  0.00  0.00    -0.024 C 
ENDBRANCH  28  30
ENDBRANCH  26  28
ENDBRANCH  23  24
ENDBRANCH   1  23
TORSDOF 14
ENDMDL
