REMARK  Name = cpd76.pdb
REMARK  17 active torsions:
REMARK  status: ('A' for Active; 'I' for Inactive)
REMARK    1  A    between atoms: C_1  and  O_2
REMARK    2  A    between atoms: O_2  and  C_3
REMARK    3  A    between atoms: C_5  and  C_6
REMARK    4  A    between atoms: C_6  and  C_7
REMARK    5  A    between atoms: C_7  and  C_8
REMARK    6  A    between atoms: N_10  and  C_11
REMARK    7  A    between atoms: C_11  and  C_12
REMARK    8  A    between atoms: C_12  and  C_13
REMARK    9  A    between atoms: C_13  and  C_14
REMARK   10  A    between atoms: C_14  and  C_15
REMARK   11  A    between atoms: C_15  and  C_16
REMARK   12  A    between atoms: N_18  and  N_19
REMARK   13  A    between atoms: N_19  and  C_20
REMARK   14  A    between atoms: C_35  and  O_36
REMARK   15  A    between atoms: O_36  and  C_37
REMARK   16  A    between atoms: C_38  and  O_39
REMARK   17  A    between atoms: O_39  and  C_40
REMARK                            x       y       z     vdW  Elec       q    Type
REMARK                         _______ _______ _______ _____ _____    ______ ____
ROOT
ATOM      1  C   UNL A   1      -8.178  -1.801  -1.620  0.00  0.00    -0.045 C 
ENDROOT
BRANCH   1   2
ATOM      2  C   UNL A   1      -7.438  -2.837  -0.765  0.00  0.00    -0.051 C 
BRANCH   2   3
ATOM      3  C   UNL A   1      -5.957  -2.483  -0.626  0.00  0.00    -0.037 C 
BRANCH   3   4
ATOM      4  C   UNL A   1      -5.204  -3.519   0.208  0.00  0.00    +0.012 C 
BRANCH   4   7
ATOM      5  C   UNL A   1      -3.323  -2.266   1.191  0.00  0.00    +0.213 C 
ATOM      6  O   UNL A   1      -4.030  -1.719   2.031  0.00  0.00    -0.276 OA
ATOM      7  N   UNL A   1      -3.793  -3.200   0.295  0.00  0.00    -0.315 N 
ATOM      8  H   UNL A   1      -3.157  -3.661  -0.299  0.00  0.00    +0.000 HD
BRANCH   5   9
ATOM      9  C   UNL A   1      -1.851  -1.947   1.056  0.00  0.00    +0.028 C 
BRANCH   9  10
ATOM     10  C   UNL A   1      -1.559  -1.292  -0.292  0.00  0.00    -0.019 C 
BRANCH  10  13
ATOM     11  C   UNL A   1       2.136  -0.330  -0.173  0.00  0.00    +0.165 A 
ATOM     12  C   UNL A   1       0.965  -1.094  -0.195  0.00  0.00    -0.013 A 
ATOM     13  C   UNL A   1      -0.291  -0.473  -0.275  0.00  0.00    -0.040 A 
ATOM     14  C   UNL A   1      -0.368   0.928  -0.337  0.00  0.00    -0.013 A 
ATOM     15  C   UNL A   1       0.788   1.712  -0.324  0.00  0.00    +0.165 A 
ATOM     16  C   UNL A   1       2.035   1.072  -0.224  0.00  0.00    +0.204 A 
BRANCH  11  18
ATOM     17  C   UNL A   1       3.550  -2.253  -0.105  0.00  0.00    +0.079 C 
ATOM     18  O   UNL A   1       3.405  -0.841  -0.085  0.00  0.00    -0.491 OA
ENDBRANCH  11  18
BRANCH  15  19
ATOM     19  O   UNL A   1       0.805   3.080  -0.403  0.00  0.00    -0.491 OA
ATOM     20  C   UNL A   1      -0.442   3.746  -0.546  0.00  0.00    +0.079 C 
ENDBRANCH  15  19
BRANCH  16  21
ATOM     21  O   UNL A   1       3.198   1.812  -0.247  0.00  0.00    -0.488 OA
ATOM     22  C   UNL A   1       3.457   2.361   1.043  0.00  0.00    +0.079 C 
ENDBRANCH  16  21
ENDBRANCH  10  13
ENDBRANCH   9  10
ENDBRANCH   5   9
ENDBRANCH   4   7
ENDBRANCH   3   4
ENDBRANCH   2   3
ENDBRANCH   1   2
BRANCH   1  23
ATOM     23  C   UNL A   1      -9.635  -2.189  -1.861  0.00  0.00    +0.025 C 
BRANCH  23  24
ATOM     24  C   UNL A   1     -10.489  -2.035  -0.619  0.00  0.00    +0.229 C 
ATOM     25  O   UNL A   1     -10.436  -1.058   0.125  0.00  0.00    -0.274 OA
ATOM     26  N   UNL A   1     -11.387  -3.071  -0.435  0.00  0.00    -0.236 N 
ATOM     27  H   UNL A   1     -11.544  -3.748  -1.132  0.00  0.00    +0.000 HD
BRANCH  26  28
ATOM     28  N   UNL A   1     -12.070  -3.111   0.805  0.00  0.00    -0.264 N 
ATOM     29  H   UNL A   1     -11.676  -2.874   1.676  0.00  0.00    +0.000 HD
BRANCH  28  30
ATOM     30  C   UNL A   1     -13.416  -3.546   0.603  0.00  0.00    +0.058 A 
ATOM     31  C   UNL A   1     -13.691  -4.925   0.712  0.00  0.00    -0.003 A 
ATOM     32  C   UNL A   1     -14.983  -5.355   0.417  0.00  0.00    +0.047 A 
ATOM     33  N   UNL A   1     -15.976  -4.508   0.059  0.00  0.00    -0.251 NA
ATOM     34  C   UNL A   1     -15.714  -3.198  -0.046  0.00  0.00    +0.073 A 
ATOM     35  C   UNL A   1     -16.753  -2.359  -0.428  0.00  0.00    -0.036 A 
ATOM     36  C   UNL A   1     -16.576  -0.983  -0.582  0.00  0.00    -0.060 A 
ATOM     37  C   UNL A   1     -15.328  -0.425  -0.352  0.00  0.00    -0.061 A 
ATOM     38  C   UNL A   1     -14.269  -1.247   0.034  0.00  0.00    -0.051 A 
ATOM     39  C   UNL A   1     -14.442  -2.645   0.202  0.00  0.00    +0.023 A 
ATOM     40  C   UNL A   1     -15.383  -6.803   0.537  0.00  0.00    -0.010 C 
ATOM     41  C   UNL A   1     -14.195  -7.759   0.522  0.00  0.00    -0.047 C 
ATOM     42  C   UNL A   1     -13.135  -7.281   1.504  0.00  0.00    -0.049 C 
ATOM     43  C   UNL A   1     -12.608  -5.907   1.092  0.00  0.00    -0.024 C 
ENDBRANCH  28  30
ENDBRANCH  26  28
ENDBRANCH  23  24
ENDBRANCH   1  23
TORSDOF 14
