@<TRIPOS>MOLECULE
*****
 36 40 0 0 0
SMALL
GASTEIGER

@<TRIPOS>ATOM
      1 C           3.4641    0.0000    0.0000 C.3     1  UNL1        0.0006
      2 C           2.5981   -0.5000    0.0000 C.3     1  UNL1        0.0122
      3 C           1.7321    0.0000    0.0000 C.3     1  UNL1        0.1090
      4 C           1.7321    1.0000    0.0000 C.3     1  UNL1        0.0128
      5 C           0.8660   -0.5000    0.0000 C.2     1  UNL1        0.3310
      6 N           0.8660   -1.5000    0.0000 N.2     1  UNL1       -0.0703
      7 C          -0.0000   -2.0000    0.0000 C.3     1  UNL1        0.2230
      8 C           0.0000   -3.0000    0.0000 C.3     1  UNL1        0.0787
      9 C          -0.8660   -3.5000    0.0000 C.2     1  UNL1       -0.0301
     10 C          -1.7321   -3.0000    0.0000 C.2     1  UNL1       -0.0480
     11 C          -2.5139   -3.6235    0.0000 C.3     1  UNL1        0.0290
     12 C          -3.4888   -3.4010    0.0000 C.3     1  UNL1        0.0616
     13 C          -4.0521   -4.2272    0.0000 C.2     1  UNL1        0.1506
     14 O          -3.6182   -5.1282    0.0000 O.2     1  UNL1       -0.2961
     15 C          -5.0493   -4.1525    0.0000 C.3     1  UNL1        0.0646
     16 C          -5.4832   -3.2515    0.0000 C.3     1  UNL1        0.0106
     17 C          -5.6618   -4.2354    0.0000 C.3     1  UNL1        0.0006
     18 C          -6.4431   -2.9711    0.0000 C.3     1  UNL1        0.0455
     19 C          -7.2342   -3.5828    0.0000 C.3     1  UNL1        0.0600
     20 C          -8.1595   -3.2036    0.0000 C.3     1  UNL1        0.0174
     21 N          -7.0999   -4.5738    0.0000 N.3     1  UNL1       -0.2715
     22 C          -7.8910   -5.1855    0.0000 C.3     1  UNL1        0.0896
     23 C          -6.1746   -4.9530    0.0000 C.3     1  UNL1        0.0896
     24 C          -6.4730   -1.9715    0.0000 C.3     1  UNL1        0.1532
     25 O          -7.2992   -1.4082    0.0000 O.3     1  UNL1       -0.2231
     26 C          -5.5316   -1.6342    0.0000 C.3     1  UNL1        0.0330
     27 C          -4.9199   -2.4253    0.0000 C.3     1  UNL1        0.0034
     28 C          -4.0692   -1.8996    0.0000 C.3     1  UNL1        0.0001
     29 C          -3.9227   -2.5000    0.0000 C.3     1  UNL1        0.0073
     30 C          -3.4888   -1.5990    0.0000 C.3     1  UNL1        0.0008
     31 C          -2.5139   -1.3765    0.0000 C.3     1  UNL1        0.0043
     32 C          -1.7321   -2.0000    0.0000 C.3     1  UNL1        0.0261
     33 C          -0.8660   -1.5000    0.0000 C.3     1  UNL1        0.0961
     34 C          -1.7321   -1.0000    0.0000 C.3     1  UNL1        0.0090
     35 C          -0.8660   -0.5000    0.0000 C.3     1  UNL1        0.2551
     36 N          -0.0000   -0.0000    0.0000 N.pl3   1  UNL1       -0.0355
@<TRIPOS>BOND
     1     1     2    1
     2     2     3    1
     3     3     4    1
     4     3     5    1
     5     5     6    2
     6     6     7    1
     7     7     8    1
     8     8     9    1
     9     9    10    2
    10    10    11    1
    11    11    12    1
    12    12    13    1
    13    13    14    2
    14    13    15    1
    15    15    16    1
    16    16    17    1
    17    16    18    1
    18    18    19    1
    19    19    20    1
    20    19    21    1
    21    21    22    1
    22    21    23    1
    23    18    24    1
    24    24    25    1
    25    24    26    1
    26    26    27    1
    27    16    27    1
    28    27    28    1
    29    27    29    1
    30    12    29    1
    31    29    30    1
    32    30    31    1
    33    31    32    1
    34    10    32    1
    35    32    33    1
    36     7    33    1
    37    33    34    1
    38    33    35    1
    39    35    36    1
    40     5    36    1
