REMARK  Name = cpd82.pdb
REMARK  13 active torsions:
REMARK  status: ('A' for Active; 'I' for Inactive)
REMARK    1  A    between atoms: C_1  and  C_2
REMARK    2  A    between atoms: C_2  and  C_3
REMARK    3  A    between atoms: C_3  and  C_4
REMARK    4  A    between atoms: C_3  and  C_5
REMARK    5  A    between atoms: C_16  and  C_17
REMARK    6  A    between atoms: C_18  and  C_19
REMARK    7  A    between atoms: C_19  and  C_20
REMARK    8  A    between atoms: C_19  and  N_21
REMARK    9  A    between atoms: N_21  and  C_22
REMARK   10  A    between atoms: N_21  and  C_23
REMARK   11  A    between atoms: C_24  and  O_25
REMARK   12  A    between atoms: C_27  and  C_28
REMARK   13  A    between atoms: C_33  and  C_34
REMARK                            x       y       z     vdW  Elec       q    Type
REMARK                         _______ _______ _______ _____ _____    ______ ____
ROOT
ATOM      1  C   UNL     1       2.119   0.227   0.113  0.00  0.00    +0.093 C 
ATOM      2  N   UNL     1       2.511  -0.991   0.219  0.00  0.00    -0.269 N 
ATOM      3  C   UNL     1       1.554  -2.028   0.645  0.00  0.00    +0.063 C 
ATOM      4  C   UNL     1       1.241  -2.903  -0.579  0.00  0.00    -0.011 C 
ATOM      5  C   UNL     1       0.101  -3.842  -0.339  0.00  0.00    -0.082 C 
ATOM      6  C   UNL     1      -0.986  -3.454   0.350  0.00  0.00    -0.069 C 
ATOM      7  C   UNL     1      -2.154  -4.372   0.550  0.00  0.00    -0.022 C 
ATOM      8  C   UNL     1      -3.580  -3.763   0.553  0.00  0.00    +0.025 C 
ATOM      9  C   UNL     1      -4.538  -4.946   0.576  0.00  0.00    +0.138 C 
ATOM     10  O   UNL     1      -4.168  -6.107   0.767  0.00  0.00    -0.297 OA
ATOM     11  C   UNL     1      -5.998  -4.636   0.481  0.00  0.00    +0.012 C 
ATOM     12  C   UNL     1      -6.321  -3.895  -0.823  0.00  0.00    -0.013 C 
ATOM     13  C   UNL     1      -6.157  -4.872  -2.004  0.00  0.00    -0.058 C 
ATOM     14  C   UNL     1      -7.781  -3.298  -0.788  0.00  0.00    +0.007 C 
ATOM     15  C   UNL     1      -7.645  -1.964  -0.021  0.00  0.00    +0.061 C 
ATOM     16  C   UNL     1      -6.142  -1.644   0.027  0.00  0.00    -0.020 C 
ATOM     17  C   UNL     1      -5.425  -2.599  -0.962  0.00  0.00    -0.020 C 
ATOM     18  C   UNL     1      -5.515  -1.989  -2.397  0.00  0.00    -0.059 C 
ATOM     19  C   UNL     1      -3.874  -2.783  -0.618  0.00  0.00    -0.025 C 
ATOM     20  C   UNL     1      -3.238  -1.375  -0.349  0.00  0.00    -0.048 C 
ATOM     21  C   UNL     1      -1.710  -1.225  -0.282  0.00  0.00    -0.046 C 
ATOM     22  C   UNL     1      -1.076  -2.038   0.860  0.00  0.00    -0.011 C 
ATOM     23  C   UNL     1       0.302  -1.534   1.445  0.00  0.00    +0.012 C 
ATOM     24  C   UNL     1       0.411  -2.151   2.878  0.00  0.00    -0.056 C 
ATOM     25  C   UNL     1       0.316  -0.010   1.653  0.00  0.00    +0.018 C 
ATOM     26  N   UNL     1       0.875   0.657   0.496  0.00  0.00    -0.332 N 
ATOM     27  H   UNL     1       3.444  -1.231   0.017  0.00  0.00    +0.000 HD
ATOM     28  H   UNL     1       0.395   1.371   0.017  0.00  0.00    +0.000 HD
ENDROOT
BRANCH   1  29
ATOM     29  C   UNL     1       3.115   1.283  -0.387  0.00  0.00    +0.011 C 
ATOM     30  C   UNL     1       3.760   1.946   0.832  0.00  0.00    -0.056 C 
BRANCH  29  32
ATOM     31  C   UNL     1       5.058   1.713  -1.997  0.00  0.00    -0.065 C 
ATOM     32  C   UNL     1       4.157   0.676  -1.342  0.00  0.00    -0.047 C 
ENDBRANCH  29  32
ENDBRANCH   1  29
BRANCH  14  33
ATOM     33  C   UNL     1      -9.008  -4.249  -0.572  0.00  0.00    +0.013 C 
ATOM     34  C   UNL     1     -10.335  -3.467  -0.623  0.00  0.00    -0.049 C 
BRANCH  33  35
ATOM     35  N   UNL     1      -8.940  -5.252   0.505  0.00  0.00    -0.305 N 
ATOM     36  C   UNL     1      -9.750  -6.439   0.211  0.00  0.00    -0.013 C 
ATOM     37  C   UNL     1      -9.227  -4.786   1.857  0.00  0.00    -0.013 C 
ATOM     38  H   UNL     1      -7.948  -5.490   0.511  0.00  0.00    +0.000 HD
ENDBRANCH  33  35
ENDBRANCH  14  33
BRANCH  15  39
ATOM     39  O   UNL     1      -8.125  -1.958   1.308  0.00  0.00    -0.391 OA
ATOM     40  H   UNL     1      -7.616  -2.590   1.839  0.00  0.00    +0.000 HD
ENDBRANCH  15  39
TORSDOF 5
