MODEL 1
REMARK VINA RESULT:    -8.028      0.000      0.000
REMARK INTER + INTRA:         -11.053
REMARK INTER:                 -10.140
REMARK INTRA:                  -0.912
REMARK UNBOUND:                -0.912
REMARK  Name = cpd82.pdb
REMARK  13 active torsions:
REMARK  status: ('A' for Active; 'I' for Inactive)
REMARK    1  A    between atoms: C_1  and  C_2
REMARK    2  A    between atoms: C_2  and  C_3
REMARK    3  A    between atoms: C_3  and  C_4
REMARK    4  A    between atoms: C_3  and  C_5
REMARK    5  A    between atoms: C_16  and  C_17
REMARK    6  A    between atoms: C_18  and  C_19
REMARK    7  A    between atoms: C_19  and  C_20
REMARK    8  A    between atoms: C_19  and  N_21
REMARK    9  A    between atoms: N_21  and  C_22
REMARK   10  A    between atoms: N_21  and  C_23
REMARK   11  A    between atoms: C_24  and  O_25
REMARK   12  A    between atoms: C_27  and  C_28
REMARK   13  A    between atoms: C_33  and  C_34
REMARK                            x       y       z     vdW  Elec       q    Type
REMARK                         _______ _______ _______ _____ _____    ______ ____
ROOT
ATOM      1  C   UNL     1      37.786 -37.294 -30.580  0.00  0.00    +0.093 C 
ATOM      2  N   UNL     1      36.896 -37.986 -31.195  0.00  0.00    -0.269 N 
ATOM      3  C   UNL     1      35.948 -38.805 -30.418  0.00  0.00    +0.063 C 
ATOM      4  C   UNL     1      34.570 -38.130 -30.504  0.00  0.00    -0.011 C 
ATOM      5  C   UNL     1      33.575 -38.731 -29.562  0.00  0.00    -0.082 C 
ATOM      6  C   UNL     1      33.929 -39.098 -28.318  0.00  0.00    -0.069 C 
ATOM      7  C   UNL     1      32.926 -39.652 -27.351  0.00  0.00    -0.022 C 
ATOM      8  C   UNL     1      33.073 -39.295 -25.849  0.00  0.00    +0.025 C 
ATOM      9  C   UNL     1      31.820 -39.830 -25.170  0.00  0.00    +0.138 C 
ATOM     10  O   UNL     1      31.010 -40.567 -25.737  0.00  0.00    -0.297 OA
ATOM     11  C   UNL     1      31.658 -39.526 -23.714  0.00  0.00    +0.012 C 
ATOM     12  C   UNL     1      31.623 -38.013 -23.467  0.00  0.00    -0.013 C 
ATOM     13  C   UNL     1      30.303 -37.448 -24.026  0.00  0.00    -0.058 C 
ATOM     14  C   UNL     1      31.765 -37.687 -21.929  0.00  0.00    +0.007 C 
ATOM     15  C   UNL     1      33.284 -37.734 -21.653  0.00  0.00    +0.061 C 
ATOM     16  C   UNL     1      33.974 -37.699 -23.026  0.00  0.00    -0.020 C 
ATOM     17  C   UNL     1      32.904 -37.319 -24.082  0.00  0.00    -0.020 C 
ATOM     18  C   UNL     1      32.760 -35.764 -24.108  0.00  0.00    -0.059 C 
ATOM     19  C   UNL     1      33.309 -37.786 -25.557  0.00  0.00    -0.025 C 
ATOM     20  C   UNL     1      34.800 -37.384 -25.831  0.00  0.00    -0.048 C 
ATOM     21  C   UNL     1      35.361 -37.448 -27.260  0.00  0.00    -0.046 C 
ATOM     22  C   UNL     1      35.344 -38.869 -27.850  0.00  0.00    -0.011 C 
ATOM     23  C   UNL     1      36.399 -39.211 -28.974  0.00  0.00    +0.012 C 
ATOM     24  C   UNL     1      36.541 -40.769 -28.969  0.00  0.00    -0.056 C 
ATOM     25  C   UNL     1      37.798 -38.671 -28.635  0.00  0.00    +0.018 C 
ATOM     26  N   UNL     1      37.998 -37.365 -29.227  0.00  0.00    -0.332 N 
ATOM     27  H   UNL     1      36.846 -37.969 -32.177  0.00  0.00    +0.000 HD
ATOM     28  H   UNL     1      38.267 -36.581 -28.696  0.00  0.00    +0.000 HD
ENDROOT
BRANCH   1  29
ATOM     29  C   UNL     1      38.727 -36.403 -31.403  0.00  0.00    +0.011 C 
ATOM     30  C   UNL     1      38.064 -35.033 -31.567  0.00  0.00    -0.056 C 
BRANCH  29  32
ATOM     31  C   UNL     1      41.111 -37.330 -31.298  0.00  0.00    -0.065 C 
ATOM     32  C   UNL     1      40.122 -36.304 -30.763  0.00  0.00    -0.047 C 
ENDBRANCH  29  32
ENDBRANCH   1  29
BRANCH  14  33
ATOM     33  C   UNL     1      30.726 -38.268 -20.910  0.00  0.00    +0.013 C 
ATOM     34  C   UNL     1      29.995 -37.141 -20.155  0.00  0.00    -0.049 C 
BRANCH  33  35
ATOM     35  N   UNL     1      31.132 -39.399 -20.058  0.00  0.00    -0.305 N 
ATOM     36  C   UNL     1      30.451 -40.645 -20.425  0.00  0.00    -0.013 C 
ATOM     37  C   UNL     1      31.045 -39.201 -18.615  0.00  0.00    -0.013 C 
ATOM     38  H   UNL     1      32.131 -39.467 -20.257  0.00  0.00    +0.000 HD
ENDBRANCH  33  35
ENDBRANCH  14  33
BRANCH  15  39
ATOM     39  O   UNL     1      33.757 -38.875 -20.967  0.00  0.00    -0.391 OA
ATOM     40  H   UNL     1      34.140 -39.499 -21.602  0.00  0.00    +0.000 HD
ENDBRANCH  15  39
TORSDOF 5
ENDMDL
MODEL 2
REMARK VINA RESULT:    -8.020     19.149     22.830
REMARK INTER + INTRA:         -11.042
REMARK INTER:                 -10.226
REMARK INTRA:                  -0.816
REMARK UNBOUND:                -0.912
REMARK  Name = cpd82.pdb
REMARK  13 active torsions:
REMARK  status: ('A' for Active; 'I' for Inactive)
REMARK    1  A    between atoms: C_1  and  C_2
REMARK    2  A    between atoms: C_2  and  C_3
REMARK    3  A    between atoms: C_3  and  C_4
REMARK    4  A    between atoms: C_3  and  C_5
REMARK    5  A    between atoms: C_16  and  C_17
REMARK    6  A    between atoms: C_18  and  C_19
REMARK    7  A    between atoms: C_19  and  C_20
REMARK    8  A    between atoms: C_19  and  N_21
REMARK    9  A    between atoms: N_21  and  C_22
REMARK   10  A    between atoms: N_21  and  C_23
REMARK   11  A    between atoms: C_24  and  O_25
REMARK   12  A    between atoms: C_27  and  C_28
REMARK   13  A    between atoms: C_33  and  C_34
REMARK                            x       y       z     vdW  Elec       q    Type
REMARK                         _______ _______ _______ _____ _____    ______ ____
ROOT
ATOM      1  C   UNL     1      46.746 -20.767 -40.631  0.00  0.00    +0.093 C 
ATOM      2  N   UNL     1      47.436 -20.273 -39.668  0.00  0.00    -0.269 N 
ATOM      3  C   UNL     1      46.751 -19.571 -38.569  0.00  0.00    +0.063 C 
ATOM      4  C   UNL     1      46.832 -20.466 -37.323  0.00  0.00    -0.011 C 
ATOM      5  C   UNL     1      45.967 -19.976 -36.204  0.00  0.00    -0.082 C 
ATOM      6  C   UNL     1      44.742 -19.474 -36.441  0.00  0.00    -0.069 C 
ATOM      7  C   UNL     1      43.850 -19.029 -35.322  0.00  0.00    -0.022 C 
ATOM      8  C   UNL     1      42.323 -19.257 -35.459  0.00  0.00    +0.025 C 
ATOM      9  C   UNL     1      41.723 -18.891 -34.109  0.00  0.00    +0.138 C 
ATOM     10  O   UNL     1      42.368 -18.335 -33.216  0.00  0.00    -0.297 OA
ATOM     11  C   UNL     1      40.255 -19.120 -33.936  0.00  0.00    +0.012 C 
ATOM     12  C   UNL     1      39.900 -20.599 -34.135  0.00  0.00    -0.013 C 
ATOM     13  C   UNL     1      40.459 -21.408 -32.948  0.00  0.00    -0.058 C 
ATOM     14  C   UNL     1      38.339 -20.794 -34.261  0.00  0.00    +0.007 C 
ATOM     15  C   UNL     1      38.020 -20.481 -35.739  0.00  0.00    +0.061 C 
ATOM     16  C   UNL     1      39.364 -20.493 -36.485  0.00  0.00    -0.020 C 
ATOM     17  C   UNL     1      40.423 -21.112 -35.536  0.00  0.00    -0.020 C 
ATOM     18  C   UNL     1      40.341 -22.668 -35.646  0.00  0.00    -0.059 C 
ATOM     19  C   UNL     1      41.915 -20.685 -35.923  0.00  0.00    -0.025 C 
ATOM     20  C   UNL     1      42.112 -20.853 -37.470  0.00  0.00    -0.048 C 
ATOM     21  C   UNL     1      43.524 -20.794 -38.073  0.00  0.00    -0.046 C 
ATOM     22  C   UNL     1      44.215 -19.437 -37.853  0.00  0.00    -0.011 C 
ATOM     23  C   UNL     1      45.327 -19.001 -38.886  0.00  0.00    +0.012 C 
ATOM     24  C   UNL     1      45.430 -17.445 -38.775  0.00  0.00    -0.056 C 
ATOM     25  C   UNL     1      44.905 -19.282 -40.338  0.00  0.00    +0.018 C 
ATOM     26  N   UNL     1      45.396 -20.574 -40.771  0.00  0.00    -0.332 N 
ATOM     27  H   UNL     1      48.416 -20.364 -39.664  0.00  0.00    +0.000 HD
ATOM     28  H   UNL     1      44.801 -21.266 -41.140  0.00  0.00    +0.000 HD
ENDROOT
BRANCH   1  29
ATOM     29  C   UNL     1      47.472 -21.545 -41.738  0.00  0.00    +0.011 C 
ATOM     30  C   UNL     1      48.897 -21.833 -41.263  0.00  0.00    -0.056 C 
BRANCH  29  32
ATOM     31  C   UNL     1      47.628 -24.007 -42.423  0.00  0.00    -0.065 C 
ATOM     32  C   UNL     1      46.714 -22.827 -42.124  0.00  0.00    -0.047 C 
ENDBRANCH  29  32
ENDBRANCH   1  29
BRANCH  14  33
ATOM     33  C   UNL     1      37.398 -20.325 -33.099  0.00  0.00    +0.013 C 
ATOM     34  C   UNL     1      36.593 -21.506 -32.523  0.00  0.00    -0.049 C 
BRANCH  33  35
ATOM     35  N   UNL     1      36.612 -19.093 -33.284  0.00  0.00    -0.305 N 
ATOM     36  C   UNL     1      37.209 -17.944 -32.595  0.00  0.00    -0.013 C 
ATOM     37  C   UNL     1      35.189 -19.166 -32.971  0.00  0.00    -0.013 C 
ATOM     38  H   UNL     1      36.655 -18.963 -34.295  0.00  0.00    +0.000 HD
ENDBRANCH  33  35
ENDBRANCH  14  33
BRANCH  15  39
ATOM     39  O   UNL     1      37.403 -19.235 -35.993  0.00  0.00    -0.391 OA
ATOM     40  H   UNL     1      36.964 -19.261 -36.857  0.00  0.00    +0.000 HD
ENDBRANCH  15  39
TORSDOF 5
ENDMDL
MODEL 3
REMARK VINA RESULT:    -7.541      1.919      2.606
REMARK INTER + INTRA:         -10.437
REMARK INTER:                  -9.605
REMARK INTRA:                  -0.832
REMARK UNBOUND:                -0.912
REMARK  Name = cpd82.pdb
REMARK  13 active torsions:
REMARK  status: ('A' for Active; 'I' for Inactive)
REMARK    1  A    between atoms: C_1  and  C_2
REMARK    2  A    between atoms: C_2  and  C_3
REMARK    3  A    between atoms: C_3  and  C_4
REMARK    4  A    between atoms: C_3  and  C_5
REMARK    5  A    between atoms: C_16  and  C_17
REMARK    6  A    between atoms: C_18  and  C_19
REMARK    7  A    between atoms: C_19  and  C_20
REMARK    8  A    between atoms: C_19  and  N_21
REMARK    9  A    between atoms: N_21  and  C_22
REMARK   10  A    between atoms: N_21  and  C_23
REMARK   11  A    between atoms: C_24  and  O_25
REMARK   12  A    between atoms: C_27  and  C_28
REMARK   13  A    between atoms: C_33  and  C_34
REMARK                            x       y       z     vdW  Elec       q    Type
REMARK                         _______ _______ _______ _____ _____    ______ ____
ROOT
ATOM      1  C   UNL     1      37.941 -36.204 -30.909  0.00  0.00    +0.093 C 
ATOM      2  N   UNL     1      37.026 -35.386 -31.287  0.00  0.00    -0.269 N 
ATOM      3  C   UNL     1      35.643 -35.573 -30.812  0.00  0.00    +0.063 C 
ATOM      4  C   UNL     1      35.342 -34.451 -29.806  0.00  0.00    -0.011 C 
ATOM      5  C   UNL     1      34.056 -34.666 -29.071  0.00  0.00    -0.082 C 
ATOM      6  C   UNL     1      33.692 -35.890 -28.652  0.00  0.00    -0.069 C 
ATOM      7  C   UNL     1      32.432 -36.106 -27.869  0.00  0.00    -0.022 C 
ATOM      8  C   UNL     1      32.429 -37.185 -26.756  0.00  0.00    +0.025 C 
ATOM      9  C   UNL     1      31.101 -37.029 -26.028  0.00  0.00    +0.138 C 
ATOM     10  O   UNL     1      30.188 -36.310 -26.442  0.00  0.00    -0.297 OA
ATOM     11  C   UNL     1      30.882 -37.894 -24.828  0.00  0.00    +0.012 C 
ATOM     12  C   UNL     1      31.949 -37.633 -23.757  0.00  0.00    -0.013 C 
ATOM     13  C   UNL     1      31.713 -36.235 -23.151  0.00  0.00    -0.058 C 
ATOM     14  C   UNL     1      31.911 -38.743 -22.637  0.00  0.00    +0.007 C 
ATOM     15  C   UNL     1      32.728 -39.919 -23.216  0.00  0.00    +0.061 C 
ATOM     16  C   UNL     1      33.505 -39.355 -24.418  0.00  0.00    -0.020 C 
ATOM     17  C   UNL     1      33.399 -37.809 -24.363  0.00  0.00    -0.020 C 
ATOM     18  C   UNL     1      34.498 -37.269 -23.393  0.00  0.00    -0.059 C 
ATOM     19  C   UNL     1      33.646 -37.129 -25.789  0.00  0.00    -0.025 C 
ATOM     20  C   UNL     1      34.919 -37.766 -26.447  0.00  0.00    -0.048 C 
ATOM     21  C   UNL     1      35.556 -37.106 -27.681  0.00  0.00    -0.046 C 
ATOM     22  C   UNL     1      34.610 -37.062 -28.894  0.00  0.00    -0.011 C 
ATOM     23  C   UNL     1      35.260 -37.013 -30.332  0.00  0.00    +0.012 C 
ATOM     24  C   UNL     1      34.163 -37.538 -31.316  0.00  0.00    -0.056 C 
ATOM     25  C   UNL     1      36.435 -37.997 -30.466  0.00  0.00    +0.018 C 
ATOM     26  N   UNL     1      37.689 -37.334 -30.176  0.00  0.00    -0.332 N 
ATOM     27  H   UNL     1      37.246 -34.640 -31.890  0.00  0.00    +0.000 HD
ATOM     28  H   UNL     1      38.319 -37.672 -29.499  0.00  0.00    +0.000 HD
ENDROOT
BRANCH   1  29
ATOM     29  C   UNL     1      39.385 -35.960 -31.369  0.00  0.00    +0.011 C 
ATOM     30  C   UNL     1      40.254 -37.104 -30.842  0.00  0.00    -0.056 C 
BRANCH  29  32
ATOM     31  C   UNL     1      40.812 -36.268 -33.472  0.00  0.00    -0.065 C 
ATOM     32  C   UNL     1      39.479 -35.810 -32.897  0.00  0.00    -0.047 C 
ENDBRANCH  29  32
ENDBRANCH   1  29
BRANCH  14  33
ATOM     33  C   UNL     1      30.595 -38.981 -21.819  0.00  0.00    +0.013 C 
ATOM     34  C   UNL     1      30.754 -38.514 -20.359  0.00  0.00    -0.049 C 
BRANCH  33  35
ATOM     35  N   UNL     1      29.898 -40.271 -21.966  0.00  0.00    -0.305 N 
ATOM     36  C   UNL     1      28.517 -40.106 -22.430  0.00  0.00    -0.013 C 
ATOM     37  C   UNL     1      29.926 -41.169 -20.817  0.00  0.00    -0.013 C 
ATOM     38  H   UNL     1      30.461 -40.736 -22.680  0.00  0.00    +0.000 HD
ENDBRANCH  33  35
ENDBRANCH  14  33
BRANCH  15  39
ATOM     39  O   UNL     1      31.984 -41.030 -23.673  0.00  0.00    -0.391 OA
ATOM     40  H   UNL     1      32.412 -41.849 -23.379  0.00  0.00    +0.000 HD
ENDBRANCH  15  39
TORSDOF 5
ENDMDL
MODEL 4
REMARK VINA RESULT:    -7.103     18.765     23.774
REMARK INTER + INTRA:          -9.883
REMARK INTER:                  -9.156
REMARK INTRA:                  -0.727
REMARK UNBOUND:                -0.912
REMARK  Name = cpd82.pdb
REMARK  13 active torsions:
REMARK  status: ('A' for Active; 'I' for Inactive)
REMARK    1  A    between atoms: C_1  and  C_2
REMARK    2  A    between atoms: C_2  and  C_3
REMARK    3  A    between atoms: C_3  and  C_4
REMARK    4  A    between atoms: C_3  and  C_5
REMARK    5  A    between atoms: C_16  and  C_17
REMARK    6  A    between atoms: C_18  and  C_19
REMARK    7  A    between atoms: C_19  and  C_20
REMARK    8  A    between atoms: C_19  and  N_21
REMARK    9  A    between atoms: N_21  and  C_22
REMARK   10  A    between atoms: N_21  and  C_23
REMARK   11  A    between atoms: C_24  and  O_25
REMARK   12  A    between atoms: C_27  and  C_28
REMARK   13  A    between atoms: C_33  and  C_34
REMARK                            x       y       z     vdW  Elec       q    Type
REMARK                         _______ _______ _______ _____ _____    ______ ____
ROOT
ATOM      1  C   UNL     1      47.326 -16.312 -39.620  0.00  0.00    +0.093 C 
ATOM      2  N   UNL     1      46.947 -16.867 -40.714  0.00  0.00    -0.269 N 
ATOM      3  C   UNL     1      46.126 -18.090 -40.661  0.00  0.00    +0.063 C 
ATOM      4  C   UNL     1      44.703 -17.715 -41.101  0.00  0.00    -0.011 C 
ATOM      5  C   UNL     1      43.717 -18.815 -40.861  0.00  0.00    -0.082 C 
ATOM      6  C   UNL     1      43.767 -19.561 -39.744  0.00  0.00    -0.069 C 
ATOM      7  C   UNL     1      42.752 -20.630 -39.472  0.00  0.00    -0.022 C 
ATOM      8  C   UNL     1      42.300 -20.864 -38.007  0.00  0.00    +0.025 C 
ATOM      9  C   UNL     1      41.144 -21.852 -38.080  0.00  0.00    +0.138 C 
ATOM     10  O   UNL     1      40.838 -22.452 -39.113  0.00  0.00    -0.297 OA
ATOM     11  C   UNL     1      40.450 -22.177 -36.796  0.00  0.00    +0.012 C 
ATOM     12  C   UNL     1      39.849 -20.917 -36.160  0.00  0.00    -0.013 C 
ATOM     13  C   UNL     1      38.659 -20.445 -37.019  0.00  0.00    -0.058 C 
ATOM     14  C   UNL     1      39.392 -21.195 -34.675  0.00  0.00    +0.007 C 
ATOM     15  C   UNL     1      40.679 -21.051 -33.832  0.00  0.00    +0.061 C 
ATOM     16  C   UNL     1      41.710 -20.351 -34.733  0.00  0.00    -0.020 C 
ATOM     17  C   UNL     1      40.958 -19.805 -35.974  0.00  0.00    -0.020 C 
ATOM     18  C   UNL     1      40.331 -18.422 -35.608  0.00  0.00    -0.059 C 
ATOM     19  C   UNL     1      41.929 -19.573 -37.223  0.00  0.00    -0.025 C 
ATOM     20  C   UNL     1      43.216 -18.817 -36.740  0.00  0.00    -0.048 C 
ATOM     21  C   UNL     1      44.180 -18.210 -37.770  0.00  0.00    -0.046 C 
ATOM     22  C   UNL     1      44.810 -19.263 -38.697  0.00  0.00    -0.011 C 
ATOM     23  C   UNL     1      46.213 -18.931 -39.343  0.00  0.00    +0.012 C 
ATOM     24  C   UNL     1      46.846 -20.308 -39.728  0.00  0.00    -0.056 C 
ATOM     25  C   UNL     1      47.182 -18.306 -38.324  0.00  0.00    +0.018 C 
ATOM     26  N   UNL     1      47.119 -16.861 -38.382  0.00  0.00    -0.332 N 
ATOM     27  H   UNL     1      47.201 -16.479 -41.582  0.00  0.00    +0.000 HD
ATOM     28  H   UNL     1      46.939 -16.309 -37.586  0.00  0.00    +0.000 HD
ENDROOT
BRANCH   1  29
ATOM     29  C   UNL     1      48.132 -15.007 -39.695  0.00  0.00    +0.011 C 
ATOM     30  C   UNL     1      48.325 -14.649 -41.170  0.00  0.00    -0.056 C 
BRANCH  29  32
ATOM     31  C   UNL     1      46.134 -13.417 -39.503  0.00  0.00    -0.065 C 
ATOM     32  C   UNL     1      47.456 -13.874 -38.903  0.00  0.00    -0.047 C 
ENDBRANCH  29  32
ENDBRANCH   1  29
BRANCH  14  33
ATOM     33  C   UNL     1      38.337 -22.316 -34.380  0.00  0.00    +0.013 C 
ATOM     34  C   UNL     1      37.393 -21.904 -33.234  0.00  0.00    -0.049 C 
BRANCH  33  35
ATOM     35  N   UNL     1      38.796 -23.714 -34.311  0.00  0.00    -0.305 N 
ATOM     36  C   UNL     1      38.330 -24.508 -35.453  0.00  0.00    -0.013 C 
ATOM     37  C   UNL     1      38.528 -24.434 -33.072  0.00  0.00    -0.013 C 
ATOM     38  H   UNL     1      39.810 -23.606 -34.342  0.00  0.00    +0.000 HD
ENDBRANCH  33  35
ENDBRANCH  14  33
BRANCH  15  39
ATOM     39  O   UNL     1      41.260 -22.254 -33.373  0.00  0.00    -0.391 OA
ATOM     40  H   UNL     1      41.178 -22.936 -34.058  0.00  0.00    +0.000 HD
ENDBRANCH  15  39
TORSDOF 5
ENDMDL
MODEL 5
REMARK VINA RESULT:    -6.974      6.948      8.475
REMARK INTER + INTRA:          -9.721
REMARK INTER:                  -8.847
REMARK INTRA:                  -0.873
REMARK UNBOUND:                -0.912
REMARK  Name = cpd82.pdb
REMARK  13 active torsions:
REMARK  status: ('A' for Active; 'I' for Inactive)
REMARK    1  A    between atoms: C_1  and  C_2
REMARK    2  A    between atoms: C_2  and  C_3
REMARK    3  A    between atoms: C_3  and  C_4
REMARK    4  A    between atoms: C_3  and  C_5
REMARK    5  A    between atoms: C_16  and  C_17
REMARK    6  A    between atoms: C_18  and  C_19
REMARK    7  A    between atoms: C_19  and  C_20
REMARK    8  A    between atoms: C_19  and  N_21
REMARK    9  A    between atoms: N_21  and  C_22
REMARK   10  A    between atoms: N_21  and  C_23
REMARK   11  A    between atoms: C_24  and  O_25
REMARK   12  A    between atoms: C_27  and  C_28
REMARK   13  A    between atoms: C_33  and  C_34
REMARK                            x       y       z     vdW  Elec       q    Type
REMARK                         _______ _______ _______ _____ _____    ______ ____
ROOT
ATOM      1  C   UNL     1      36.387 -36.600 -30.025  0.00  0.00    +0.093 C 
ATOM      2  N   UNL     1      35.995 -36.854 -31.221  0.00  0.00    -0.269 N 
ATOM      3  C   UNL     1      34.600 -36.570 -31.604  0.00  0.00    +0.063 C 
ATOM      4  C   UNL     1      34.614 -35.356 -32.546  0.00  0.00    -0.011 C 
ATOM      5  C   UNL     1      33.244 -34.819 -32.814  0.00  0.00    -0.082 C 
ATOM      6  C   UNL     1      32.323 -34.743 -31.837  0.00  0.00    -0.069 C 
ATOM      7  C   UNL     1      30.966 -34.158 -32.086  0.00  0.00    -0.022 C 
ATOM      8  C   UNL     1      30.294 -33.343 -30.950  0.00  0.00    +0.025 C 
ATOM      9  C   UNL     1      29.044 -32.728 -31.564  0.00  0.00    +0.138 C 
ATOM     10  O   UNL     1      28.619 -33.039 -32.679  0.00  0.00    -0.297 OA
ATOM     11  C   UNL     1      28.254 -31.798 -30.699  0.00  0.00    +0.012 C 
ATOM     12  C   UNL     1      29.104 -30.600 -30.256  0.00  0.00    -0.013 C 
ATOM     13  C   UNL     1      29.370 -29.699 -31.478  0.00  0.00    -0.058 C 
ATOM     14  C   UNL     1      28.386 -29.789 -29.108  0.00  0.00    +0.007 C 
ATOM     15  C   UNL     1      28.725 -30.556 -27.811  0.00  0.00    +0.061 C 
ATOM     16  C   UNL     1      29.881 -31.508 -28.159  0.00  0.00    -0.020 C 
ATOM     17  C   UNL     1      30.431 -31.092 -29.548  0.00  0.00    -0.020 C 
ATOM     18  C   UNL     1      31.446 -29.921 -29.352  0.00  0.00    -0.059 C 
ATOM     19  C   UNL     1      31.211 -32.282 -30.278  0.00  0.00    -0.025 C 
ATOM     20  C   UNL     1      32.195 -32.952 -29.258  0.00  0.00    -0.048 C 
ATOM     21  C   UNL     1      33.274 -33.924 -29.760  0.00  0.00    -0.046 C 
ATOM     22  C   UNL     1      32.687 -35.174 -30.439  0.00  0.00    -0.011 C 
ATOM     23  C   UNL     1      33.560 -36.491 -30.436  0.00  0.00    +0.012 C 
ATOM     24  C   UNL     1      32.555 -37.671 -30.647  0.00  0.00    -0.056 C 
ATOM     25  C   UNL     1      34.211 -36.747 -29.066  0.00  0.00    +0.018 C 
ATOM     26  N   UNL     1      35.546 -36.189 -29.025  0.00  0.00    -0.332 N 
ATOM     27  H   UNL     1      36.621 -37.236 -31.878  0.00  0.00    +0.000 HD
ATOM     28  H   UNL     1      35.831 -35.557 -28.325  0.00  0.00    +0.000 HD
ENDROOT
BRANCH   1  29
ATOM     29  C   UNL     1      37.858 -36.850 -29.662  0.00  0.00    +0.011 C 
ATOM     30  C   UNL     1      37.941 -38.162 -28.880  0.00  0.00    -0.056 C 
BRANCH  29  32
ATOM     31  C   UNL     1      40.240 -37.006 -30.587  0.00  0.00    -0.065 C 
ATOM     32  C   UNL     1      38.760 -36.854 -30.908  0.00  0.00    -0.047 C 
ENDBRANCH  29  32
ENDBRANCH   1  29
BRANCH  14  33
ATOM     33  C   UNL     1      26.963 -29.180 -29.356  0.00  0.00    +0.013 C 
ATOM     34  C   UNL     1      27.032 -27.649 -29.512  0.00  0.00    -0.049 C 
BRANCH  33  35
ATOM     35  N   UNL     1      25.842 -29.652 -28.525  0.00  0.00    -0.305 N 
ATOM     36  C   UNL     1      24.841 -30.386 -29.308  0.00  0.00    -0.013 C 
ATOM     37  C   UNL     1      25.178 -28.658 -27.690  0.00  0.00    -0.013 C 
ATOM     38  H   UNL     1      26.311 -30.278 -27.871  0.00  0.00    +0.000 HD
ENDBRANCH  33  35
ENDBRANCH  14  33
BRANCH  15  39
ATOM     39  O   UNL     1      27.683 -31.335 -27.258  0.00  0.00    -0.391 OA
ATOM     40  H   UNL     1      27.373 -31.975 -27.917  0.00  0.00    +0.000 HD
ENDBRANCH  15  39
TORSDOF 5
ENDMDL
MODEL 6
REMARK VINA RESULT:    -6.946      2.210      2.919
REMARK INTER + INTRA:          -9.685
REMARK INTER:                  -9.020
REMARK INTRA:                  -0.665
REMARK UNBOUND:                -0.912
REMARK  Name = cpd82.pdb
REMARK  13 active torsions:
REMARK  status: ('A' for Active; 'I' for Inactive)
REMARK    1  A    between atoms: C_1  and  C_2
REMARK    2  A    between atoms: C_2  and  C_3
REMARK    3  A    between atoms: C_3  and  C_4
REMARK    4  A    between atoms: C_3  and  C_5
REMARK    5  A    between atoms: C_16  and  C_17
REMARK    6  A    between atoms: C_18  and  C_19
REMARK    7  A    between atoms: C_19  and  C_20
REMARK    8  A    between atoms: C_19  and  N_21
REMARK    9  A    between atoms: N_21  and  C_22
REMARK   10  A    between atoms: N_21  and  C_23
REMARK   11  A    between atoms: C_24  and  O_25
REMARK   12  A    between atoms: C_27  and  C_28
REMARK   13  A    between atoms: C_33  and  C_34
REMARK                            x       y       z     vdW  Elec       q    Type
REMARK                         _______ _______ _______ _____ _____    ______ ____
ROOT
ATOM      1  C   UNL     1      34.893 -35.934 -30.251  0.00  0.00    +0.093 C 
ATOM      2  N   UNL     1      34.524 -37.092 -30.665  0.00  0.00    -0.269 N 
ATOM      3  C   UNL     1      34.497 -38.226 -29.724  0.00  0.00    +0.063 C 
ATOM      4  C   UNL     1      33.024 -38.560 -29.442  0.00  0.00    -0.011 C 
ATOM      5  C   UNL     1      32.860 -39.534 -28.318  0.00  0.00    -0.082 C 
ATOM      6  C   UNL     1      33.626 -39.460 -27.216  0.00  0.00    -0.069 C 
ATOM      7  C   UNL     1      33.433 -40.400 -26.064  0.00  0.00    -0.022 C 
ATOM      8  C   UNL     1      33.648 -39.860 -24.627  0.00  0.00    +0.025 C 
ATOM      9  C   UNL     1      33.192 -40.972 -23.692  0.00  0.00    +0.138 C 
ATOM     10  O   UNL     1      32.924 -42.110 -24.082  0.00  0.00    -0.297 OA
ATOM     11  C   UNL     1      33.200 -40.669 -22.227  0.00  0.00    +0.012 C 
ATOM     12  C   UNL     1      32.281 -39.484 -21.904  0.00  0.00    -0.013 C 
ATOM     13  C   UNL     1      30.816 -39.923 -22.099  0.00  0.00    -0.058 C 
ATOM     14  C   UNL     1      32.520 -38.968 -20.432  0.00  0.00    +0.007 C 
ATOM     15  C   UNL     1      33.747 -38.036 -20.533  0.00  0.00    +0.061 C 
ATOM     16  C   UNL     1      33.942 -37.739 -22.029  0.00  0.00    -0.020 C 
ATOM     17  C   UNL     1      32.672 -38.224 -22.775  0.00  0.00    -0.020 C 
ATOM     18  C   UNL     1      31.586 -37.105 -22.689  0.00  0.00    -0.059 C 
ATOM     19  C   UNL     1      32.945 -38.506 -24.326  0.00  0.00    -0.025 C 
ATOM     20  C   UNL     1      33.751 -37.304 -24.931  0.00  0.00    -0.048 C 
ATOM     21  C   UNL     1      33.898 -37.171 -26.455  0.00  0.00    -0.046 C 
ATOM     22  C   UNL     1      34.645 -38.355 -27.093  0.00  0.00    -0.011 C 
ATOM     23  C   UNL     1      35.404 -38.099 -28.454  0.00  0.00    +0.012 C 
ATOM     24  C   UNL     1      36.486 -39.223 -28.560  0.00  0.00    -0.056 C 
ATOM     25  C   UNL     1      36.188 -36.776 -28.436  0.00  0.00    +0.018 C 
ATOM     26  N   UNL     1      35.391 -35.704 -28.994  0.00  0.00    -0.332 N 
ATOM     27  H   UNL     1      34.261 -37.221 -31.605  0.00  0.00    +0.000 HD
ATOM     28  H   UNL     1      35.219 -34.867 -28.506  0.00  0.00    +0.000 HD
ENDROOT
BRANCH   1  29
ATOM     29  C   UNL     1      34.860 -34.753 -31.231  0.00  0.00    +0.011 C 
ATOM     30  C   UNL     1      33.414 -34.554 -31.690  0.00  0.00    -0.056 C 
BRANCH  29  32
ATOM     31  C   UNL     1      34.407 -32.459 -30.188  0.00  0.00    -0.065 C 
ATOM     32  C   UNL     1      35.456 -33.479 -30.608  0.00  0.00    -0.047 C 
ENDBRANCH  29  32
ENDBRANCH   1  29
BRANCH  14  33
ATOM     33  C   UNL     1      32.327 -39.945 -19.221  0.00  0.00    +0.013 C 
ATOM     34  C   UNL     1      31.187 -39.472 -18.299  0.00  0.00    -0.049 C 
BRANCH  33  35
ATOM     35  N   UNL     1      33.523 -40.423 -18.506  0.00  0.00    -0.305 N 
ATOM     36  C   UNL     1      34.102 -41.620 -19.127  0.00  0.00    -0.013 C 
ATOM     37  C   UNL     1      33.390 -40.633 -17.069  0.00  0.00    -0.013 C 
ATOM     38  H   UNL     1      34.158 -39.630 -18.601  0.00  0.00    +0.000 HD
ENDBRANCH  33  35
ENDBRANCH  14  33
BRANCH  15  39
ATOM     39  O   UNL     1      34.965 -38.554 -20.039  0.00  0.00    -0.391 OA
ATOM     40  H   UNL     1      35.046 -38.346 -19.095  0.00  0.00    +0.000 HD
ENDBRANCH  15  39
TORSDOF 5
ENDMDL
MODEL 7
REMARK VINA RESULT:    -6.866     20.146     24.783
REMARK INTER + INTRA:          -9.585
REMARK INTER:                  -8.705
REMARK INTRA:                  -0.880
REMARK UNBOUND:                -0.912
REMARK  Name = cpd82.pdb
REMARK  13 active torsions:
REMARK  status: ('A' for Active; 'I' for Inactive)
REMARK    1  A    between atoms: C_1  and  C_2
REMARK    2  A    between atoms: C_2  and  C_3
REMARK    3  A    between atoms: C_3  and  C_4
REMARK    4  A    between atoms: C_3  and  C_5
REMARK    5  A    between atoms: C_16  and  C_17
REMARK    6  A    between atoms: C_18  and  C_19
REMARK    7  A    between atoms: C_19  and  C_20
REMARK    8  A    between atoms: C_19  and  N_21
REMARK    9  A    between atoms: N_21  and  C_22
REMARK   10  A    between atoms: N_21  and  C_23
REMARK   11  A    between atoms: C_24  and  O_25
REMARK   12  A    between atoms: C_27  and  C_28
REMARK   13  A    between atoms: C_33  and  C_34
REMARK                            x       y       z     vdW  Elec       q    Type
REMARK                         _______ _______ _______ _____ _____    ______ ____
ROOT
ATOM      1  C   UNL     1      37.502 -18.774 -33.643  0.00  0.00    +0.093 C 
ATOM      2  N   UNL     1      38.334 -18.691 -32.669  0.00  0.00    -0.269 N 
ATOM      3  C   UNL     1      39.695 -19.235 -32.826  0.00  0.00    +0.063 C 
ATOM      4  C   UNL     1      40.663 -18.046 -32.921  0.00  0.00    -0.011 C 
ATOM      5  C   UNL     1      42.044 -18.459 -33.323  0.00  0.00    -0.082 C 
ATOM      6  C   UNL     1      42.242 -19.403 -34.259  0.00  0.00    -0.069 C 
ATOM      7  C   UNL     1      43.622 -19.785 -34.705  0.00  0.00    -0.022 C 
ATOM      8  C   UNL     1      43.840 -20.156 -36.195  0.00  0.00    +0.025 C 
ATOM      9  C   UNL     1      45.345 -20.298 -36.372  0.00  0.00    +0.138 C 
ATOM     10  O   UNL     1      46.136 -20.306 -35.425  0.00  0.00    -0.297 OA
ATOM     11  C   UNL     1      45.841 -20.558 -37.759  0.00  0.00    +0.012 C 
ATOM     12  C   UNL     1      45.439 -19.423 -38.710  0.00  0.00    -0.013 C 
ATOM     13  C   UNL     1      46.246 -18.161 -38.348  0.00  0.00    -0.058 C 
ATOM     14  C   UNL     1      45.684 -19.833 -40.214  0.00  0.00    +0.007 C 
ATOM     15  C   UNL     1      44.437 -20.655 -40.609  0.00  0.00    +0.061 C 
ATOM     16  C   UNL     1      43.383 -20.391 -39.521  0.00  0.00    -0.020 C 
ATOM     17  C   UNL     1      43.875 -19.192 -38.669  0.00  0.00    -0.020 C 
ATOM     18  C   UNL     1      43.470 -17.868 -39.392  0.00  0.00    -0.059 C 
ATOM     19  C   UNL     1      43.212 -19.164 -37.214  0.00  0.00    -0.025 C 
ATOM     20  C   UNL     1      41.667 -19.397 -37.350  0.00  0.00    -0.048 C 
ATOM     21  C   UNL     1      40.744 -19.131 -36.150  0.00  0.00    -0.046 C 
ATOM     22  C   UNL     1      41.055 -20.033 -34.942  0.00  0.00    -0.011 C 
ATOM     23  C   UNL     1      39.882 -20.333 -33.927  0.00  0.00    +0.012 C 
ATOM     24  C   UNL     1      40.284 -21.650 -33.186  0.00  0.00    -0.056 C 
ATOM     25  C   UNL     1      38.564 -20.655 -34.650  0.00  0.00    +0.018 C 
ATOM     26  N   UNL     1      37.760 -19.460 -34.802  0.00  0.00    -0.332 N 
ATOM     27  H   UNL     1      38.065 -18.266 -31.822  0.00  0.00    +0.000 HD
ATOM     28  H   UNL     1      37.422 -19.160 -35.676  0.00  0.00    +0.000 HD
ENDROOT
BRANCH   1  29
ATOM     29  C   UNL     1      36.108 -18.151 -33.480  0.00  0.00    +0.011 C 
ATOM     30  C   UNL     1      35.233 -19.135 -32.701  0.00  0.00    -0.056 C 
BRANCH  29  32
ATOM     31  C   UNL     1      35.316 -16.660 -31.556  0.00  0.00    -0.065 C 
ATOM     32  C   UNL     1      36.178 -16.770 -32.806  0.00  0.00    -0.047 C 
ENDBRANCH  29  32
ENDBRANCH   1  29
BRANCH  14  33
ATOM     33  C   UNL     1      47.121 -20.241 -40.688  0.00  0.00    +0.013 C 
ATOM     34  C   UNL     1      47.641 -19.284 -41.779  0.00  0.00    -0.049 C 
BRANCH  33  35
ATOM     35  N   UNL     1      47.398 -21.664 -40.952  0.00  0.00    -0.305 N 
ATOM     36  C   UNL     1      48.166 -22.290 -39.872  0.00  0.00    -0.013 C 
ATOM     37  C   UNL     1      48.006 -21.988 -42.238  0.00  0.00    -0.013 C 
ATOM     38  H   UNL     1      46.458 -22.058 -40.996  0.00  0.00    +0.000 HD
ENDBRANCH  33  35
ENDBRANCH  14  33
BRANCH  15  39
ATOM     39  O   UNL     1      44.616 -22.054 -40.698  0.00  0.00    -0.391 OA
ATOM     40  H   UNL     1      45.470 -22.297 -40.308  0.00  0.00    +0.000 HD
ENDBRANCH  15  39
TORSDOF 5
ENDMDL
MODEL 8
REMARK VINA RESULT:    -6.837      6.096     10.250
REMARK INTER + INTRA:          -9.549
REMARK INTER:                  -8.635
REMARK INTRA:                  -0.914
REMARK UNBOUND:                -0.912
REMARK  Name = cpd82.pdb
REMARK  13 active torsions:
REMARK  status: ('A' for Active; 'I' for Inactive)
REMARK    1  A    between atoms: C_1  and  C_2
REMARK    2  A    between atoms: C_2  and  C_3
REMARK    3  A    between atoms: C_3  and  C_4
REMARK    4  A    between atoms: C_3  and  C_5
REMARK    5  A    between atoms: C_16  and  C_17
REMARK    6  A    between atoms: C_18  and  C_19
REMARK    7  A    between atoms: C_19  and  C_20
REMARK    8  A    between atoms: C_19  and  N_21
REMARK    9  A    between atoms: N_21  and  C_22
REMARK   10  A    between atoms: N_21  and  C_23
REMARK   11  A    between atoms: C_24  and  O_25
REMARK   12  A    between atoms: C_27  and  C_28
REMARK   13  A    between atoms: C_33  and  C_34
REMARK                            x       y       z     vdW  Elec       q    Type
REMARK                         _______ _______ _______ _____ _____    ______ ____
ROOT
ATOM      1  C   UNL     1      37.430 -37.996 -29.829  0.00  0.00    +0.093 C 
ATOM      2  N   UNL     1      37.060 -38.694 -28.818  0.00  0.00    -0.269 N 
ATOM      3  C   UNL     1      35.807 -39.468 -28.888  0.00  0.00    +0.063 C 
ATOM      4  C   UNL     1      36.184 -40.956 -28.973  0.00  0.00    -0.011 C 
ATOM      5  C   UNL     1      35.011 -41.829 -29.292  0.00  0.00    -0.082 C 
ATOM      6  C   UNL     1      34.082 -41.447 -30.185  0.00  0.00    -0.069 C 
ATOM      7  C   UNL     1      32.933 -42.338 -30.547  0.00  0.00    -0.022 C 
ATOM      8  C   UNL     1      32.420 -42.324 -32.011  0.00  0.00    +0.025 C 
ATOM      9  C   UNL     1      31.404 -43.454 -32.107  0.00  0.00    +0.138 C 
ATOM     10  O   UNL     1      30.983 -44.065 -31.122  0.00  0.00    -0.297 OA
ATOM     11  C   UNL     1      30.823 -43.727 -33.458  0.00  0.00    +0.012 C 
ATOM     12  C   UNL     1      31.918 -44.097 -34.466  0.00  0.00    -0.013 C 
ATOM     13  C   UNL     1      32.476 -45.488 -34.106  0.00  0.00    -0.058 C 
ATOM     14  C   UNL     1      31.359 -44.081 -35.941  0.00  0.00    +0.007 C 
ATOM     15  C   UNL     1      31.414 -42.598 -36.370  0.00  0.00    +0.061 C 
ATOM     16  C   UNL     1      32.313 -41.885 -35.346  0.00  0.00    -0.020 C 
ATOM     17  C   UNL     1      33.033 -42.975 -34.511  0.00  0.00    -0.020 C 
ATOM     18  C   UNL     1      34.296 -43.451 -35.297  0.00  0.00    -0.059 C 
ATOM     19  C   UNL     1      33.531 -42.429 -33.093  0.00  0.00    -0.025 C 
ATOM     20  C   UNL     1      34.252 -41.052 -33.299  0.00  0.00    -0.048 C 
ATOM     21  C   UNL     1      35.080 -40.443 -32.156  0.00  0.00    -0.046 C 
ATOM     22  C   UNL     1      34.240 -40.132 -30.905  0.00  0.00    -0.011 C 
ATOM     23  C   UNL     1      34.751 -38.990 -29.941  0.00  0.00    +0.012 C 
ATOM     24  C   UNL     1      33.497 -38.515 -29.136  0.00  0.00    -0.056 C 
ATOM     25  C   UNL     1      35.233 -37.753 -30.718  0.00  0.00    +0.018 C 
ATOM     26  N   UNL     1      36.660 -37.820 -30.950  0.00  0.00    -0.332 N 
ATOM     27  H   UNL     1      37.608 -38.713 -28.000  0.00  0.00    +0.000 HD
ATOM     28  H   UNL     1      37.052 -37.745 -31.850  0.00  0.00    +0.000 HD
ENDROOT
BRANCH   1  29
ATOM     29  C   UNL     1      38.766 -37.242 -29.758  0.00  0.00    +0.011 C 
ATOM     30  C   UNL     1      39.752 -38.094 -28.955  0.00  0.00    -0.056 C 
BRANCH  29  32
ATOM     31  C   UNL     1      39.412 -35.397 -31.410  0.00  0.00    -0.065 C 
ATOM     32  C   UNL     1      39.299 -36.894 -31.158  0.00  0.00    -0.047 C 
ENDBRANCH  29  32
ENDBRANCH   1  29
BRANCH  14  33
ATOM     33  C   UNL     1      30.153 -45.004 -36.328  0.00  0.00    +0.013 C 
ATOM     34  C   UNL     1      30.581 -46.088 -37.337  0.00  0.00    -0.049 C 
BRANCH  33  35
ATOM     35  N   UNL     1      28.855 -44.376 -36.632  0.00  0.00    -0.305 N 
ATOM     36  C   UNL     1      27.837 -44.686 -35.622  0.00  0.00    -0.013 C 
ATOM     37  C   UNL     1      28.309 -44.608 -37.965  0.00  0.00    -0.013 C 
ATOM     38  H   UNL     1      29.089 -43.384 -36.610  0.00  0.00    +0.000 HD
ENDBRANCH  33  35
ENDBRANCH  14  33
BRANCH  15  39
ATOM     39  O   UNL     1      30.179 -41.913 -36.403  0.00  0.00    -0.391 OA
ATOM     40  H   UNL     1      29.465 -42.520 -36.153  0.00  0.00    +0.000 HD
ENDBRANCH  15  39
TORSDOF 5
ENDMDL
MODEL 9
REMARK VINA RESULT:    -6.759      5.242      7.692
REMARK INTER + INTRA:          -9.449
REMARK INTER:                  -8.543
REMARK INTRA:                  -0.906
REMARK UNBOUND:                -0.912
REMARK  Name = cpd82.pdb
REMARK  13 active torsions:
REMARK  status: ('A' for Active; 'I' for Inactive)
REMARK    1  A    between atoms: C_1  and  C_2
REMARK    2  A    between atoms: C_2  and  C_3
REMARK    3  A    between atoms: C_3  and  C_4
REMARK    4  A    between atoms: C_3  and  C_5
REMARK    5  A    between atoms: C_16  and  C_17
REMARK    6  A    between atoms: C_18  and  C_19
REMARK    7  A    between atoms: C_19  and  C_20
REMARK    8  A    between atoms: C_19  and  N_21
REMARK    9  A    between atoms: N_21  and  C_22
REMARK   10  A    between atoms: N_21  and  C_23
REMARK   11  A    between atoms: C_24  and  O_25
REMARK   12  A    between atoms: C_27  and  C_28
REMARK   13  A    between atoms: C_33  and  C_34
REMARK                            x       y       z     vdW  Elec       q    Type
REMARK                         _______ _______ _______ _____ _____    ______ ____
ROOT
ATOM      1  C   UNL     1      38.752 -36.490 -30.875  0.00  0.00    +0.093 C 
ATOM      2  N   UNL     1      38.826 -36.917 -29.667  0.00  0.00    -0.269 N 
ATOM      3  C   UNL     1      37.638 -37.518 -29.034  0.00  0.00    +0.063 C 
ATOM      4  C   UNL     1      37.891 -39.029 -28.911  0.00  0.00    -0.011 C 
ATOM      5  C   UNL     1      36.666 -39.787 -28.506  0.00  0.00    -0.082 C 
ATOM      6  C   UNL     1      35.458 -39.472 -29.004  0.00  0.00    -0.069 C 
ATOM      7  C   UNL     1      34.234 -40.259 -28.643  0.00  0.00    -0.022 C 
ATOM      8  C   UNL     1      33.146 -40.470 -29.727  0.00  0.00    +0.025 C 
ATOM      9  C   UNL     1      32.148 -41.453 -29.130  0.00  0.00    +0.138 C 
ATOM     10  O   UNL     1      32.168 -41.794 -27.945  0.00  0.00    -0.297 OA
ATOM     11  C   UNL     1      31.036 -41.911 -30.018  0.00  0.00    +0.012 C 
ATOM     12  C   UNL     1      31.582 -42.616 -31.267  0.00  0.00    -0.013 C 
ATOM     13  C   UNL     1      32.191 -43.968 -30.848  0.00  0.00    -0.058 C 
ATOM     14  C   UNL     1      30.446 -42.822 -32.342  0.00  0.00    +0.007 C 
ATOM     15  C   UNL     1      30.363 -41.475 -33.094  0.00  0.00    +0.061 C 
ATOM     16  C   UNL     1      31.637 -40.696 -32.727  0.00  0.00    -0.020 C 
ATOM     17  C   UNL     1      32.607 -41.683 -32.027  0.00  0.00    -0.020 C 
ATOM     18  C   UNL     1      33.395 -42.468 -33.124  0.00  0.00    -0.059 C 
ATOM     19  C   UNL     1      33.683 -40.934 -31.110  0.00  0.00    -0.025 C 
ATOM     20  C   UNL     1      34.293 -39.733 -31.912  0.00  0.00    -0.048 C 
ATOM     21  C   UNL     1      35.550 -39.022 -31.387  0.00  0.00    -0.046 C 
ATOM     22  C   UNL     1      35.338 -38.360 -30.015  0.00  0.00    -0.011 C 
ATOM     23  C   UNL     1      36.251 -37.125 -29.644  0.00  0.00    +0.012 C 
ATOM     24  C   UNL     1      35.478 -36.338 -28.535  0.00  0.00    -0.056 C 
ATOM     25  C   UNL     1      36.395 -36.143 -30.819  0.00  0.00    +0.018 C 
ATOM     26  N   UNL     1      37.583 -36.442 -31.590  0.00  0.00    -0.332 N 
ATOM     27  H   UNL     1      39.671 -36.844 -29.166  0.00  0.00    +0.000 HD
ATOM     28  H   UNL     1      37.554 -36.600 -32.562  0.00  0.00    +0.000 HD
ENDROOT
BRANCH   1  29
ATOM     29  C   UNL     1      40.015 -35.920 -31.536  0.00  0.00    +0.011 C 
ATOM     30  C   UNL     1      39.792 -34.426 -31.782  0.00  0.00    -0.056 C 
BRANCH  29  32
ATOM     31  C   UNL     1      42.516 -36.467 -31.526  0.00  0.00    -0.065 C 
ATOM     32  C   UNL     1      41.272 -36.192 -30.693  0.00  0.00    -0.047 C 
ENDBRANCH  29  32
ENDBRANCH   1  29
BRANCH  14  33
ATOM     33  C   UNL     1      29.159 -43.637 -31.972  0.00  0.00    +0.013 C 
ATOM     34  C   UNL     1      29.064 -44.934 -32.799  0.00  0.00    -0.049 C 
BRANCH  33  35
ATOM     35  N   UNL     1      27.883 -42.914 -31.835  0.00  0.00    -0.305 N 
ATOM     36  C   UNL     1      27.412 -42.876 -30.447  0.00  0.00    -0.013 C 
ATOM     37  C   UNL     1      26.793 -43.331 -32.711  0.00  0.00    -0.013 C 
ATOM     38  H   UNL     1      28.135 -41.977 -32.152  0.00  0.00    +0.000 HD
ENDBRANCH  33  35
ENDBRANCH  14  33
BRANCH  15  39
ATOM     39  O   UNL     1      29.256 -40.654 -32.781  0.00  0.00    -0.391 OA
ATOM     40  H   UNL     1      28.436 -41.155 -32.906  0.00  0.00    +0.000 HD
ENDBRANCH  15  39
TORSDOF 5
ENDMDL
MODEL 10
REMARK VINA RESULT:    -6.517     22.780     24.918
REMARK INTER + INTRA:          -9.144
REMARK INTER:                  -8.265
REMARK INTRA:                  -0.879
REMARK UNBOUND:                -0.912
REMARK  Name = cpd82.pdb
REMARK  13 active torsions:
REMARK  status: ('A' for Active; 'I' for Inactive)
REMARK    1  A    between atoms: C_1  and  C_2
REMARK    2  A    between atoms: C_2  and  C_3
REMARK    3  A    between atoms: C_3  and  C_4
REMARK    4  A    between atoms: C_3  and  C_5
REMARK    5  A    between atoms: C_16  and  C_17
REMARK    6  A    between atoms: C_18  and  C_19
REMARK    7  A    between atoms: C_19  and  C_20
REMARK    8  A    between atoms: C_19  and  N_21
REMARK    9  A    between atoms: N_21  and  C_22
REMARK   10  A    between atoms: N_21  and  C_23
REMARK   11  A    between atoms: C_24  and  O_25
REMARK   12  A    between atoms: C_27  and  C_28
REMARK   13  A    between atoms: C_33  and  C_34
REMARK                            x       y       z     vdW  Elec       q    Type
REMARK                         _______ _______ _______ _____ _____    ______ ____
ROOT
ATOM      1  C   UNL     1      46.413 -19.322 -40.381  0.00  0.00    +0.093 C 
ATOM      2  N   UNL     1      47.191 -19.638 -39.410  0.00  0.00    -0.269 N 
ATOM      3  C   UNL     1      46.988 -19.021 -38.086  0.00  0.00    +0.063 C 
ATOM      4  C   UNL     1      46.425 -20.103 -37.151  0.00  0.00    -0.011 C 
ATOM      5  C   UNL     1      45.951 -19.545 -35.846  0.00  0.00    -0.082 C 
ATOM      6  C   UNL     1      45.294 -18.373 -35.788  0.00  0.00    -0.069 C 
ATOM      7  C   UNL     1      44.770 -17.833 -34.492  0.00  0.00    -0.022 C 
ATOM      8  C   UNL     1      43.426 -17.060 -34.503  0.00  0.00    +0.025 C 
ATOM      9  C   UNL     1      43.072 -16.820 -33.042  0.00  0.00    +0.138 C 
ATOM     10  O   UNL     1      43.855 -17.041 -32.115  0.00  0.00    -0.297 OA
ATOM     11  C   UNL     1      41.753 -16.171 -32.763  0.00  0.00    +0.012 C 
ATOM     12  C   UNL     1      40.597 -17.015 -33.314  0.00  0.00    -0.013 C 
ATOM     13  C   UNL     1      40.471 -18.298 -32.468  0.00  0.00    -0.058 C 
ATOM     14  C   UNL     1      39.245 -16.201 -33.301  0.00  0.00    +0.007 C 
ATOM     15  C   UNL     1      39.284 -15.349 -34.589  0.00  0.00    +0.061 C 
ATOM     16  C   UNL     1      40.401 -15.940 -35.465  0.00  0.00    -0.020 C 
ATOM     17  C   UNL     1      40.805 -17.307 -34.854  0.00  0.00    -0.020 C 
ATOM     18  C   UNL     1      39.814 -18.396 -35.373  0.00  0.00    -0.059 C 
ATOM     19  C   UNL     1      42.278 -17.757 -35.286  0.00  0.00    -0.025 C 
ATOM     20  C   UNL     1      42.444 -17.554 -36.832  0.00  0.00    -0.048 C 
ATOM     21  C   UNL     1      43.648 -18.172 -37.561  0.00  0.00    -0.046 C 
ATOM     22  C   UNL     1      44.997 -17.625 -37.063  0.00  0.00    -0.011 C 
ATOM     23  C   UNL     1      46.218 -17.658 -38.064  0.00  0.00    +0.012 C 
ATOM     24  C   UNL     1      47.227 -16.580 -37.546  0.00  0.00    -0.056 C 
ATOM     25  C   UNL     1      45.818 -17.199 -39.476  0.00  0.00    +0.018 C 
ATOM     26  N   UNL     1      45.464 -18.336 -40.300  0.00  0.00    -0.332 N 
ATOM     27  H   UNL     1      47.917 -20.288 -39.547  0.00  0.00    +0.000 HD
ATOM     28  H   UNL     1      44.601 -18.397 -40.770  0.00  0.00    +0.000 HD
ENDROOT
BRANCH   1  29
ATOM     29  C   UNL     1      46.603 -20.017 -41.737  0.00  0.00    +0.011 C 
ATOM     30  C   UNL     1      47.557 -21.197 -41.538  0.00  0.00    -0.056 C 
BRANCH  29  32
ATOM     31  C   UNL     1      45.190 -21.933 -42.677  0.00  0.00    -0.065 C 
ATOM     32  C   UNL     1      45.260 -20.448 -42.349  0.00  0.00    -0.047 C 
ENDBRANCH  29  32
ENDBRANCH   1  29
BRANCH  14  33
ATOM     33  C   UNL     1      38.694 -15.626 -31.951  0.00  0.00    +0.013 C 
ATOM     34  C   UNL     1      37.292 -16.184 -31.639  0.00  0.00    -0.049 C 
BRANCH  33  35
ATOM     35  N   UNL     1      38.841 -14.184 -31.688  0.00  0.00    -0.305 N 
ATOM     36  C   UNL     1      39.750 -13.912 -30.569  0.00  0.00    -0.013 C 
ATOM     37  C   UNL     1      37.611 -13.418 -31.517  0.00  0.00    -0.013 C 
ATOM     38  H   UNL     1      39.243 -13.848 -32.564  0.00  0.00    +0.000 HD
ENDBRANCH  33  35
ENDBRANCH  14  33
BRANCH  15  39
ATOM     39  O   UNL     1      39.560 -13.973 -34.417  0.00  0.00    -0.391 OA
ATOM     40  H   UNL     1      39.478 -13.741 -33.479  0.00  0.00    +0.000 HD
ENDBRANCH  15  39
TORSDOF 5
ENDMDL
MODEL 11
REMARK VINA RESULT:    -6.385     20.460     26.633
REMARK INTER + INTRA:          -8.978
REMARK INTER:                  -8.133
REMARK INTRA:                  -0.844
REMARK UNBOUND:                -0.912
REMARK  Name = cpd82.pdb
REMARK  13 active torsions:
REMARK  status: ('A' for Active; 'I' for Inactive)
REMARK    1  A    between atoms: C_1  and  C_2
REMARK    2  A    between atoms: C_2  and  C_3
REMARK    3  A    between atoms: C_3  and  C_4
REMARK    4  A    between atoms: C_3  and  C_5
REMARK    5  A    between atoms: C_16  and  C_17
REMARK    6  A    between atoms: C_18  and  C_19
REMARK    7  A    between atoms: C_19  and  C_20
REMARK    8  A    between atoms: C_19  and  N_21
REMARK    9  A    between atoms: N_21  and  C_22
REMARK   10  A    between atoms: N_21  and  C_23
REMARK   11  A    between atoms: C_24  and  O_25
REMARK   12  A    between atoms: C_27  and  C_28
REMARK   13  A    between atoms: C_33  and  C_34
REMARK                            x       y       z     vdW  Elec       q    Type
REMARK                         _______ _______ _______ _____ _____    ______ ____
ROOT
ATOM      1  C   UNL     1      40.241 -21.992 -35.070  0.00  0.00    +0.093 C 
ATOM      2  N   UNL     1      39.995 -22.317 -36.288  0.00  0.00    -0.269 N 
ATOM      3  C   UNL     1      40.305 -21.367 -37.371  0.00  0.00    +0.063 C 
ATOM      4  C   UNL     1      41.518 -21.917 -38.138  0.00  0.00    -0.011 C 
ATOM      5  C   UNL     1      42.082 -20.929 -39.110  0.00  0.00    -0.082 C 
ATOM      6  C   UNL     1      42.175 -19.624 -38.799  0.00  0.00    -0.069 C 
ATOM      7  C   UNL     1      42.785 -18.636 -39.747  0.00  0.00    -0.022 C 
ATOM      8  C   UNL     1      43.614 -17.464 -39.160  0.00  0.00    +0.025 C 
ATOM      9  C   UNL     1      44.253 -16.767 -40.353  0.00  0.00    +0.138 C 
ATOM     10  O   UNL     1      43.949 -17.020 -41.522  0.00  0.00    -0.297 OA
ATOM     11  C   UNL     1      45.198 -15.647 -40.056  0.00  0.00    +0.012 C 
ATOM     12  C   UNL     1      46.379 -16.133 -39.206  0.00  0.00    -0.013 C 
ATOM     13  C   UNL     1      47.274 -17.042 -40.072  0.00  0.00    -0.058 C 
ATOM     14  C   UNL     1      47.204 -14.915 -38.634  0.00  0.00    +0.007 C 
ATOM     15  C   UNL     1      46.431 -14.472 -37.372  0.00  0.00    +0.061 C 
ATOM     16  C   UNL     1      45.458 -15.614 -37.037  0.00  0.00    -0.020 C 
ATOM     17  C   UNL     1      45.863 -16.844 -37.891  0.00  0.00    -0.020 C 
ATOM     18  C   UNL     1      47.014 -17.602 -37.157  0.00  0.00    -0.059 C 
ATOM     19  C   UNL     1      44.657 -17.877 -38.084  0.00  0.00    -0.025 C 
ATOM     20  C   UNL     1      43.970 -18.127 -36.697  0.00  0.00    -0.048 C 
ATOM     21  C   UNL     1      42.977 -19.289 -36.533  0.00  0.00    -0.046 C 
ATOM     22  C   UNL     1      41.738 -19.152 -37.436  0.00  0.00    -0.011 C 
ATOM     23  C   UNL     1      40.405 -19.858 -36.967  0.00  0.00    +0.012 C 
ATOM     24  C   UNL     1      39.244 -19.116 -37.708  0.00  0.00    -0.056 C 
ATOM     25  C   UNL     1      40.137 -19.644 -35.468  0.00  0.00    +0.018 C 
ATOM     26  N   UNL     1      40.670 -20.745 -34.693  0.00  0.00    -0.332 N 
ATOM     27  H   UNL     1      39.601 -23.195 -36.496  0.00  0.00    +0.000 HD
ATOM     28  H   UNL     1      41.296 -20.609 -33.946  0.00  0.00    +0.000 HD
ENDROOT
BRANCH   1  29
ATOM     29  C   UNL     1      39.964 -23.016 -33.961  0.00  0.00    +0.011 C 
ATOM     30  C   UNL     1      40.679 -22.549 -32.691  0.00  0.00    -0.056 C 
BRANCH  29  32
ATOM     31  C   UNL     1      38.034 -24.684 -33.754  0.00  0.00    -0.065 C 
ATOM     32  C   UNL     1      38.456 -23.222 -33.740  0.00  0.00    -0.047 C 
ENDBRANCH  29  32
ENDBRANCH   1  29
BRANCH  14  33
ATOM     33  C   UNL     1      47.840 -13.873 -39.617  0.00  0.00    +0.013 C 
ATOM     34  C   UNL     1      49.377 -13.977 -39.622  0.00  0.00    -0.049 C 
BRANCH  33  35
ATOM     35  N   UNL     1      47.329 -12.491 -39.605  0.00  0.00    -0.305 N 
ATOM     36  C   UNL     1      46.851 -12.063 -40.924  0.00  0.00    -0.013 C 
ATOM     37  C   UNL     1      48.208 -11.470 -39.048  0.00  0.00    -0.013 C 
ATOM     38  H   UNL     1      46.551 -12.559 -38.948  0.00  0.00    +0.000 HD
ENDBRANCH  33  35
ENDBRANCH  14  33
BRANCH  15  39
ATOM     39  O   UNL     1      45.673 -13.286 -37.491  0.00  0.00    -0.391 OA
ATOM     40  H   UNL     1      45.364 -13.189 -38.405  0.00  0.00    +0.000 HD
ENDBRANCH  15  39
TORSDOF 5
ENDMDL
MODEL 12
REMARK VINA RESULT:    -6.379     24.498     27.702
REMARK INTER + INTRA:          -8.970
REMARK INTER:                  -8.019
REMARK INTRA:                  -0.951
REMARK UNBOUND:                -0.912
REMARK  Name = cpd82.pdb
REMARK  13 active torsions:
REMARK  status: ('A' for Active; 'I' for Inactive)
REMARK    1  A    between atoms: C_1  and  C_2
REMARK    2  A    between atoms: C_2  and  C_3
REMARK    3  A    between atoms: C_3  and  C_4
REMARK    4  A    between atoms: C_3  and  C_5
REMARK    5  A    between atoms: C_16  and  C_17
REMARK    6  A    between atoms: C_18  and  C_19
REMARK    7  A    between atoms: C_19  and  C_20
REMARK    8  A    between atoms: C_19  and  N_21
REMARK    9  A    between atoms: N_21  and  C_22
REMARK   10  A    between atoms: N_21  and  C_23
REMARK   11  A    between atoms: C_24  and  O_25
REMARK   12  A    between atoms: C_27  and  C_28
REMARK   13  A    between atoms: C_33  and  C_34
REMARK                            x       y       z     vdW  Elec       q    Type
REMARK                         _______ _______ _______ _____ _____    ______ ____
ROOT
ATOM      1  C   UNL     1      44.244 -12.027 -31.619  0.00  0.00    +0.093 C 
ATOM      2  N   UNL     1      44.215 -13.065 -30.862  0.00  0.00    -0.269 N 
ATOM      3  C   UNL     1      43.904 -14.382 -31.447  0.00  0.00    +0.063 C 
ATOM      4  C   UNL     1      45.201 -15.206 -31.452  0.00  0.00    -0.011 C 
ATOM      5  C   UNL     1      45.075 -16.472 -32.238  0.00  0.00    -0.082 C 
ATOM      6  C   UNL     1      44.401 -16.505 -33.401  0.00  0.00    -0.069 C 
ATOM      7  C   UNL     1      44.314 -17.757 -34.220  0.00  0.00    -0.022 C 
ATOM      8  C   UNL     1      44.319 -17.630 -35.765  0.00  0.00    +0.025 C 
ATOM      9  C   UNL     1      44.421 -19.052 -36.300  0.00  0.00    +0.138 C 
ATOM     10  O   UNL     1      44.304 -20.049 -35.583  0.00  0.00    -0.297 OA
ATOM     11  C   UNL     1      44.548 -19.211 -37.781  0.00  0.00    +0.012 C 
ATOM     12  C   UNL     1      45.804 -18.504 -38.307  0.00  0.00    -0.013 C 
ATOM     13  C   UNL     1      47.048 -19.278 -37.827  0.00  0.00    -0.058 C 
ATOM     14  C   UNL     1      45.779 -18.402 -39.881  0.00  0.00    +0.007 C 
ATOM     15  C   UNL     1      44.910 -17.161 -40.184  0.00  0.00    +0.061 C 
ATOM     16  C   UNL     1      44.781 -16.389 -38.860  0.00  0.00    -0.020 C 
ATOM     17  C   UNL     1      45.811 -16.985 -37.866  0.00  0.00    -0.020 C 
ATOM     18  C   UNL     1      47.199 -16.317 -38.127  0.00  0.00    -0.059 C 
ATOM     19  C   UNL     1      45.424 -16.699 -36.341  0.00  0.00    -0.025 C 
ATOM     20  C   UNL     1      45.027 -15.190 -36.187  0.00  0.00    -0.048 C 
ATOM     21  C   UNL     1      44.891 -14.573 -34.786  0.00  0.00    -0.046 C 
ATOM     22  C   UNL     1      43.790 -15.237 -33.941  0.00  0.00    -0.011 C 
ATOM     23  C   UNL     1      43.117 -14.375 -32.800  0.00  0.00    +0.012 C 
ATOM     24  C   UNL     1      41.731 -15.043 -32.519  0.00  0.00    -0.056 C 
ATOM     25  C   UNL     1      42.795 -12.947 -33.272  0.00  0.00    +0.018 C 
ATOM     26  N   UNL     1      43.877 -12.044 -32.939  0.00  0.00    -0.332 N 
ATOM     27  H   UNL     1      44.399 -12.981 -29.899  0.00  0.00    +0.000 HD
ATOM     28  H   UNL     1      44.319 -11.480 -33.615  0.00  0.00    +0.000 HD
ENDROOT
BRANCH   1  29
ATOM     29  C   UNL     1      44.626 -10.674 -31.003  0.00  0.00    +0.011 C 
ATOM     30  C   UNL     1      44.689 -10.842 -29.483  0.00  0.00    -0.056 C 
BRANCH  29  32
ATOM     31  C   UNL     1      47.167 -10.935 -31.167  0.00  0.00    -0.065 C 
ATOM     32  C   UNL     1      45.943 -10.134 -31.586  0.00  0.00    -0.047 C 
ENDBRANCH  29  32
ENDBRANCH   1  29
BRANCH  14  33
ATOM     33  C   UNL     1      45.681 -19.705 -40.746  0.00  0.00    +0.013 C 
ATOM     34  C   UNL     1      46.952 -19.907 -41.594  0.00  0.00    -0.049 C 
BRANCH  33  35
ATOM     35  N   UNL     1      44.426 -19.979 -41.466  0.00  0.00    -0.305 N 
ATOM     36  C   UNL     1      43.684 -21.102 -40.883  0.00  0.00    -0.013 C 
ATOM     37  C   UNL     1      44.520 -20.153 -42.911  0.00  0.00    -0.013 C 
ATOM     38  H   UNL     1      43.912 -19.107 -41.336  0.00  0.00    +0.000 HD
ENDBRANCH  33  35
ENDBRANCH  14  33
BRANCH  15  39
ATOM     39  O   UNL     1      43.603 -17.417 -40.657  0.00  0.00    -0.391 OA
ATOM     40  H   UNL     1      42.956 -17.075 -40.021  0.00  0.00    +0.000 HD
ENDBRANCH  15  39
TORSDOF 5
ENDMDL
MODEL 13
REMARK VINA RESULT:    -6.374     23.826     26.253
REMARK INTER + INTRA:          -8.963
REMARK INTER:                  -8.060
REMARK INTRA:                  -0.903
REMARK UNBOUND:                -0.912
REMARK  Name = cpd82.pdb
REMARK  13 active torsions:
REMARK  status: ('A' for Active; 'I' for Inactive)
REMARK    1  A    between atoms: C_1  and  C_2
REMARK    2  A    between atoms: C_2  and  C_3
REMARK    3  A    between atoms: C_3  and  C_4
REMARK    4  A    between atoms: C_3  and  C_5
REMARK    5  A    between atoms: C_16  and  C_17
REMARK    6  A    between atoms: C_18  and  C_19
REMARK    7  A    between atoms: C_19  and  C_20
REMARK    8  A    between atoms: C_19  and  N_21
REMARK    9  A    between atoms: N_21  and  C_22
REMARK   10  A    between atoms: N_21  and  C_23
REMARK   11  A    between atoms: C_24  and  O_25
REMARK   12  A    between atoms: C_27  and  C_28
REMARK   13  A    between atoms: C_33  and  C_34
REMARK                            x       y       z     vdW  Elec       q    Type
REMARK                         _______ _______ _______ _____ _____    ______ ____
ROOT
ATOM      1  C   UNL     1      45.983 -19.587 -40.112  0.00  0.00    +0.093 C 
ATOM      2  N   UNL     1      45.901 -20.533 -39.247  0.00  0.00    -0.269 N 
ATOM      3  C   UNL     1      45.954 -20.210 -37.810  0.00  0.00    +0.063 C 
ATOM      4  C   UNL     1      44.545 -20.421 -37.234  0.00  0.00    -0.011 C 
ATOM      5  C   UNL     1      44.409 -19.898 -35.839  0.00  0.00    -0.082 C 
ATOM      6  C   UNL     1      44.984 -18.739 -35.472  0.00  0.00    -0.069 C 
ATOM      7  C   UNL     1      44.809 -18.183 -34.091  0.00  0.00    -0.022 C 
ATOM      8  C   UNL     1      44.712 -16.645 -33.922  0.00  0.00    +0.025 C 
ATOM      9  C   UNL     1      44.345 -16.409 -32.463  0.00  0.00    +0.138 C 
ATOM     10  O   UNL     1      44.353 -17.304 -31.614  0.00  0.00    -0.297 OA
ATOM     11  C   UNL     1      44.087 -14.994 -32.050  0.00  0.00    +0.012 C 
ATOM     12  C   UNL     1      42.925 -14.390 -32.849  0.00  0.00    -0.013 C 
ATOM     13  C   UNL     1      41.612 -15.063 -32.404  0.00  0.00    -0.058 C 
ATOM     14  C   UNL     1      42.851 -12.827 -32.646  0.00  0.00    +0.007 C 
ATOM     15  C   UNL     1      43.883 -12.249 -33.639  0.00  0.00    +0.061 C 
ATOM     16  C   UNL     1      44.229 -13.386 -34.614  0.00  0.00    -0.020 C 
ATOM     17  C   UNL     1      43.193 -14.520 -34.403  0.00  0.00    -0.020 C 
ATOM     18  C   UNL     1      41.914 -14.187 -35.236  0.00  0.00    -0.059 C 
ATOM     19  C   UNL     1      43.731 -15.941 -34.902  0.00  0.00    -0.025 C 
ATOM     20  C   UNL     1      44.375 -15.775 -36.322  0.00  0.00    -0.048 C 
ATOM     21  C   UNL     1      44.709 -17.018 -37.161  0.00  0.00    -0.046 C 
ATOM     22  C   UNL     1      45.748 -17.934 -36.491  0.00  0.00    -0.011 C 
ATOM     23  C   UNL     1      46.631 -18.852 -37.426  0.00  0.00    +0.012 C 
ATOM     24  C   UNL     1      47.909 -19.205 -36.596  0.00  0.00    -0.056 C 
ATOM     25  C   UNL     1      47.142 -18.092 -38.662  0.00  0.00    +0.018 C 
ATOM     26  N   UNL     1      46.245 -18.282 -39.783  0.00  0.00    -0.332 N 
ATOM     27  H   UNL     1      45.804 -21.467 -39.542  0.00  0.00    +0.000 HD
ATOM     28  H   UNL     1      45.851 -17.526 -40.275  0.00  0.00    +0.000 HD
ENDROOT
BRANCH   1  29
ATOM     29  C   UNL     1      45.869 -19.936 -41.603  0.00  0.00    +0.011 C 
ATOM     30  C   UNL     1      46.357 -21.373 -41.795  0.00  0.00    -0.056 C 
BRANCH  29  32
ATOM     31  C   UNL     1      43.604 -21.003 -42.138  0.00  0.00    -0.065 C 
ATOM     32  C   UNL     1      44.438 -19.730 -42.128  0.00  0.00    -0.047 C 
ENDBRANCH  29  32
ENDBRANCH   1  29
BRANCH  14  33
ATOM     33  C   UNL     1      42.676 -12.235 -31.205  0.00  0.00    +0.013 C 
ATOM     34  C   UNL     1      41.378 -11.412 -31.094  0.00  0.00    -0.049 C 
BRANCH  33  35
ATOM     35  N   UNL     1      43.842 -11.614 -30.553  0.00  0.00    -0.305 N 
ATOM     36  C   UNL     1      44.272 -12.353 -29.361  0.00  0.00    -0.013 C 
ATOM     37  C   UNL     1      43.740 -10.194 -30.238  0.00  0.00    -0.013 C 
ATOM     38  H   UNL     1      44.551 -11.674 -31.284  0.00  0.00    +0.000 HD
ENDBRANCH  33  35
ENDBRANCH  14  33
BRANCH  15  39
ATOM     39  O   UNL     1      45.094 -11.784 -33.079  0.00  0.00    -0.391 OA
ATOM     40  H   UNL     1      45.560 -12.522 -32.656  0.00  0.00    +0.000 HD
ENDBRANCH  15  39
TORSDOF 5
ENDMDL
MODEL 14
REMARK VINA RESULT:    -6.240     30.256     35.033
REMARK INTER + INTRA:          -8.794
REMARK INTER:                  -7.937
REMARK INTRA:                  -0.856
REMARK UNBOUND:                -0.912
REMARK  Name = cpd82.pdb
REMARK  13 active torsions:
REMARK  status: ('A' for Active; 'I' for Inactive)
REMARK    1  A    between atoms: C_1  and  C_2
REMARK    2  A    between atoms: C_2  and  C_3
REMARK    3  A    between atoms: C_3  and  C_4
REMARK    4  A    between atoms: C_3  and  C_5
REMARK    5  A    between atoms: C_16  and  C_17
REMARK    6  A    between atoms: C_18  and  C_19
REMARK    7  A    between atoms: C_19  and  C_20
REMARK    8  A    between atoms: C_19  and  N_21
REMARK    9  A    between atoms: N_21  and  C_22
REMARK   10  A    between atoms: N_21  and  C_23
REMARK   11  A    between atoms: C_24  and  O_25
REMARK   12  A    between atoms: C_27  and  C_28
REMARK   13  A    between atoms: C_33  and  C_34
REMARK                            x       y       z     vdW  Elec       q    Type
REMARK                         _______ _______ _______ _____ _____    ______ ____
ROOT
ATOM      1  C   UNL     1      45.293 -35.572 -54.503  0.00  0.00    +0.093 C 
ATOM      2  N   UNL     1      45.233 -35.457 -55.780  0.00  0.00    -0.269 N 
ATOM      3  C   UNL     1      46.148 -34.530 -56.470  0.00  0.00    +0.063 C 
ATOM      4  C   UNL     1      47.181 -35.375 -57.232  0.00  0.00    -0.011 C 
ATOM      5  C   UNL     1      48.308 -34.555 -57.776  0.00  0.00    -0.082 C 
ATOM      6  C   UNL     1      48.842 -33.548 -57.064  0.00  0.00    -0.069 C 
ATOM      7  C   UNL     1      50.005 -32.756 -57.581  0.00  0.00    -0.022 C 
ATOM      8  C   UNL     1      51.069 -32.260 -56.568  0.00  0.00    +0.025 C 
ATOM      9  C   UNL     1      52.198 -31.674 -57.404  0.00  0.00    +0.138 C 
ATOM     10  O   UNL     1      52.105 -31.482 -58.619  0.00  0.00    -0.297 OA
ATOM     11  C   UNL     1      53.414 -31.209 -56.668  0.00  0.00    +0.012 C 
ATOM     12  C   UNL     1      54.061 -32.361 -55.888  0.00  0.00    -0.013 C 
ATOM     13  C   UNL     1      54.692 -33.348 -56.890  0.00  0.00    -0.058 C 
ATOM     14  C   UNL     1      55.144 -31.822 -54.875  0.00  0.00    +0.007 C 
ATOM     15  C   UNL     1      54.340 -31.383 -53.632  0.00  0.00    +0.061 C 
ATOM     16  C   UNL     1      52.940 -32.000 -53.782  0.00  0.00    -0.020 C 
ATOM     17  C   UNL     1      53.005 -33.043 -54.927  0.00  0.00    -0.020 C 
ATOM     18  C   UNL     1      53.543 -34.389 -54.345  0.00  0.00    -0.059 C 
ATOM     19  C   UNL     1      51.570 -33.340 -55.567  0.00  0.00    -0.025 C 
ATOM     20  C   UNL     1      50.531 -33.565 -54.413  0.00  0.00    -0.048 C 
ATOM     21  C   UNL     1      49.147 -34.150 -54.732  0.00  0.00    -0.046 C 
ATOM     22  C   UNL     1      48.322 -33.261 -55.678  0.00  0.00    -0.011 C 
ATOM     23  C   UNL     1      46.748 -33.370 -55.605  0.00  0.00    +0.012 C 
ATOM     24  C   UNL     1      46.196 -32.033 -56.200  0.00  0.00    -0.056 C 
ATOM     25  C   UNL     1      46.240 -33.413 -54.154  0.00  0.00    +0.018 C 
ATOM     26  N   UNL     1      46.084 -34.782 -53.709  0.00  0.00    -0.332 N 
ATOM     27  H   UNL     1      44.581 -35.985 -56.296  0.00  0.00    +0.000 HD
ATOM     28  H   UNL     1      46.515 -35.123 -52.892  0.00  0.00    +0.000 HD
ENDROOT
BRANCH   1  29
ATOM     29  C   UNL     1      44.372 -36.585 -53.808  0.00  0.00    +0.011 C 
ATOM     30  C   UNL     1      43.212 -36.902 -54.754  0.00  0.00    -0.056 C 
BRANCH  29  32
ATOM     31  C   UNL     1      45.161 -38.936 -54.440  0.00  0.00    -0.065 C 
ATOM     32  C   UNL     1      45.137 -37.848 -53.377  0.00  0.00    -0.047 C 
ENDBRANCH  29  32
ENDBRANCH   1  29
BRANCH  14  33
ATOM     33  C   UNL     1      56.360 -30.986 -55.405  0.00  0.00    +0.013 C 
ATOM     34  C   UNL     1      57.641 -31.840 -55.460  0.00  0.00    -0.049 C 
BRANCH  33  35
ATOM     35  N   UNL     1      56.563 -29.626 -54.876  0.00  0.00    -0.305 N 
ATOM     36  C   UNL     1      56.230 -28.591 -55.860  0.00  0.00    -0.013 C 
ATOM     37  C   UNL     1      57.865 -29.338 -54.284  0.00  0.00    -0.013 C 
ATOM     38  H   UNL     1      55.906 -29.601 -54.096  0.00  0.00    +0.000 HD
ENDBRANCH  33  35
ENDBRANCH  14  33
BRANCH  15  39
ATOM     39  O   UNL     1      54.175 -29.990 -53.456  0.00  0.00    -0.391 OA
ATOM     40  H   UNL     1      54.744 -29.686 -52.732  0.00  0.00    +0.000 HD
ENDBRANCH  15  39
TORSDOF 5
ENDMDL
MODEL 15
REMARK VINA RESULT:    -6.216      7.757     10.866
REMARK INTER + INTRA:          -8.764
REMARK INTER:                  -8.201
REMARK INTRA:                  -0.562
REMARK UNBOUND:                -0.912
REMARK  Name = cpd82.pdb
REMARK  13 active torsions:
REMARK  status: ('A' for Active; 'I' for Inactive)
REMARK    1  A    between atoms: C_1  and  C_2
REMARK    2  A    between atoms: C_2  and  C_3
REMARK    3  A    between atoms: C_3  and  C_4
REMARK    4  A    between atoms: C_3  and  C_5
REMARK    5  A    between atoms: C_16  and  C_17
REMARK    6  A    between atoms: C_18  and  C_19
REMARK    7  A    between atoms: C_19  and  C_20
REMARK    8  A    between atoms: C_19  and  N_21
REMARK    9  A    between atoms: N_21  and  C_22
REMARK   10  A    between atoms: N_21  and  C_23
REMARK   11  A    between atoms: C_24  and  O_25
REMARK   12  A    between atoms: C_27  and  C_28
REMARK   13  A    between atoms: C_33  and  C_34
REMARK                            x       y       z     vdW  Elec       q    Type
REMARK                         _______ _______ _______ _____ _____    ______ ____
ROOT
ATOM      1  C   UNL     1      28.425 -27.366 -29.812  0.00  0.00    +0.093 C 
ATOM      2  N   UNL     1      27.664 -27.989 -28.987  0.00  0.00    -0.269 N 
ATOM      3  C   UNL     1      27.675 -29.462 -28.959  0.00  0.00    +0.063 C 
ATOM      4  C   UNL     1      28.370 -29.898 -27.659  0.00  0.00    -0.011 C 
ATOM      5  C   UNL     1      28.660 -31.365 -27.625  0.00  0.00    -0.082 C 
ATOM      6  C   UNL     1      29.089 -32.015 -28.721  0.00  0.00    -0.069 C 
ATOM      7  C   UNL     1      29.431 -33.474 -28.682  0.00  0.00    -0.022 C 
ATOM      8  C   UNL     1      30.610 -33.980 -29.552  0.00  0.00    +0.025 C 
ATOM      9  C   UNL     1      30.831 -35.432 -29.151  0.00  0.00    +0.138 C 
ATOM     10  O   UNL     1      30.049 -36.056 -28.429  0.00  0.00    -0.297 OA
ATOM     11  C   UNL     1      31.992 -36.138 -29.776  0.00  0.00    +0.012 C 
ATOM     12  C   UNL     1      33.312 -35.433 -29.440  0.00  0.00    -0.013 C 
ATOM     13  C   UNL     1      33.621 -35.642 -27.944  0.00  0.00    -0.058 C 
ATOM     14  C   UNL     1      34.490 -35.979 -30.336  0.00  0.00    +0.007 C 
ATOM     15  C   UNL     1      34.370 -35.200 -31.665  0.00  0.00    +0.061 C 
ATOM     16  C   UNL     1      33.431 -34.014 -31.388  0.00  0.00    -0.020 C 
ATOM     17  C   UNL     1      33.248 -33.907 -29.852  0.00  0.00    -0.020 C 
ATOM     18  C   UNL     1      34.449 -33.101 -29.262  0.00  0.00    -0.059 C 
ATOM     19  C   UNL     1      31.909 -33.131 -29.449  0.00  0.00    -0.025 C 
ATOM     20  C   UNL     1      31.797 -31.822 -30.305  0.00  0.00    -0.048 C 
ATOM     21  C   UNL     1      30.770 -30.744 -29.926  0.00  0.00    -0.046 C 
ATOM     22  C   UNL     1      29.317 -31.247 -29.998  0.00  0.00    -0.011 C 
ATOM     23  C   UNL     1      28.181 -30.180 -30.255  0.00  0.00    +0.012 C 
ATOM     24  C   UNL     1      26.966 -30.978 -30.832  0.00  0.00    -0.056 C 
ATOM     25  C   UNL     1      28.572 -29.177 -31.354  0.00  0.00    +0.018 C 
ATOM     26  N   UNL     1      29.173 -27.994 -30.773  0.00  0.00    -0.332 N 
ATOM     27  H   UNL     1      27.077 -27.486 -28.377  0.00  0.00    +0.000 HD
ATOM     28  H   UNL     1      30.058 -27.664 -31.050  0.00  0.00    +0.000 HD
ENDROOT
BRANCH   1  29
ATOM     29  C   UNL     1      28.442 -25.831 -29.786  0.00  0.00    +0.011 C 
ATOM     30  C   UNL     1      27.253 -25.326 -30.608  0.00  0.00    -0.056 C 
BRANCH  29  32
ATOM     31  C   UNL     1      29.816 -24.921 -27.827  0.00  0.00    -0.065 C 
ATOM     32  C   UNL     1      28.433 -25.284 -28.349  0.00  0.00    -0.047 C 
ENDBRANCH  29  32
ENDBRANCH   1  29
BRANCH  14  33
ATOM     33  C   UNL     1      34.850 -37.504 -30.307  0.00  0.00    +0.013 C 
ATOM     34  C   UNL     1      36.302 -37.725 -29.841  0.00  0.00    -0.049 C 
BRANCH  33  35
ATOM     35  N   UNL     1      34.449 -38.344 -31.450  0.00  0.00    -0.305 N 
ATOM     36  C   UNL     1      33.051 -38.777 -31.358  0.00  0.00    -0.013 C 
ATOM     37  C   UNL     1      35.298 -39.491 -31.753  0.00  0.00    -0.013 C 
ATOM     38  H   UNL     1      34.574 -37.706 -32.236  0.00  0.00    +0.000 HD
ENDBRANCH  33  35
ENDBRANCH  14  33
BRANCH  15  39
ATOM     39  O   UNL     1      33.840 -35.916 -32.761  0.00  0.00    -0.391 OA
ATOM     40  H   UNL     1      33.938 -36.868 -32.604  0.00  0.00    +0.000 HD
ENDBRANCH  15  39
TORSDOF 5
ENDMDL
MODEL 16
REMARK VINA RESULT:    -6.122     27.846     32.288
REMARK INTER + INTRA:          -8.645
REMARK INTER:                  -7.767
REMARK INTRA:                  -0.878
REMARK UNBOUND:                -0.912
REMARK  Name = cpd82.pdb
REMARK  13 active torsions:
REMARK  status: ('A' for Active; 'I' for Inactive)
REMARK    1  A    between atoms: C_1  and  C_2
REMARK    2  A    between atoms: C_2  and  C_3
REMARK    3  A    between atoms: C_3  and  C_4
REMARK    4  A    between atoms: C_3  and  C_5
REMARK    5  A    between atoms: C_16  and  C_17
REMARK    6  A    between atoms: C_18  and  C_19
REMARK    7  A    between atoms: C_19  and  C_20
REMARK    8  A    between atoms: C_19  and  N_21
REMARK    9  A    between atoms: N_21  and  C_22
REMARK   10  A    between atoms: N_21  and  C_23
REMARK   11  A    between atoms: C_24  and  O_25
REMARK   12  A    between atoms: C_27  and  C_28
REMARK   13  A    between atoms: C_33  and  C_34
REMARK                            x       y       z     vdW  Elec       q    Type
REMARK                         _______ _______ _______ _____ _____    ______ ____
ROOT
ATOM      1  C   UNL     1      61.114 -49.666 -47.482  0.00  0.00    +0.093 C 
ATOM      2  N   UNL     1      61.095 -48.965 -46.406  0.00  0.00    -0.269 N 
ATOM      3  C   UNL     1      59.958 -48.064 -46.147  0.00  0.00    +0.063 C 
ATOM      4  C   UNL     1      59.129 -48.676 -45.007  0.00  0.00    -0.011 C 
ATOM      5  C   UNL     1      57.818 -47.982 -44.811  0.00  0.00    -0.082 C 
ATOM      6  C   UNL     1      57.086 -47.570 -45.861  0.00  0.00    -0.069 C 
ATOM      7  C   UNL     1      55.748 -46.921 -45.674  0.00  0.00    -0.022 C 
ATOM      8  C   UNL     1      54.636 -47.209 -46.716  0.00  0.00    +0.025 C 
ATOM      9  C   UNL     1      53.367 -46.581 -46.155  0.00  0.00    +0.138 C 
ATOM     10  O   UNL     1      53.364 -45.836 -45.173  0.00  0.00    -0.297 OA
ATOM     11  C   UNL     1      52.105 -46.803 -46.927  0.00  0.00    +0.012 C 
ATOM     12  C   UNL     1      51.785 -48.298 -47.043  0.00  0.00    -0.013 C 
ATOM     13  C   UNL     1      51.371 -48.828 -45.656  0.00  0.00    -0.058 C 
ATOM     14  C   UNL     1      50.644 -48.552 -48.103  0.00  0.00    +0.007 C 
ATOM     15  C   UNL     1      51.368 -48.564 -49.468  0.00  0.00    +0.061 C 
ATOM     16  C   UNL     1      52.868 -48.701 -49.161  0.00  0.00    -0.020 C 
ATOM     17  C   UNL     1      53.010 -49.082 -47.665  0.00  0.00    -0.020 C 
ATOM     18  C   UNL     1      52.834 -50.628 -47.526  0.00  0.00    -0.059 C 
ATOM     19  C   UNL     1      54.449 -48.710 -47.073  0.00  0.00    -0.025 C 
ATOM     20  C   UNL     1      55.555 -49.195 -48.074  0.00  0.00    -0.048 C 
ATOM     21  C   UNL     1      57.026 -49.231 -47.630  0.00  0.00    -0.046 C 
ATOM     22  C   UNL     1      57.576 -47.842 -47.260  0.00  0.00    -0.011 C 
ATOM     23  C   UNL     1      59.132 -47.607 -47.396  0.00  0.00    +0.012 C 
ATOM     24  C   UNL     1      59.323 -46.060 -47.521  0.00  0.00    -0.056 C 
ATOM     25  C   UNL     1      59.691 -48.196 -48.703  0.00  0.00    +0.018 C 
ATOM     26  N   UNL     1      60.189 -49.538 -48.485  0.00  0.00    -0.332 N 
ATOM     27  H   UNL     1      61.833 -49.030 -45.759  0.00  0.00    +0.000 HD
ATOM     28  H   UNL     1      59.884 -50.305 -49.021  0.00  0.00    +0.000 HD
ENDROOT
BRANCH   1  29
ATOM     29  C   UNL     1      62.278 -50.642 -47.707  0.00  0.00    +0.011 C 
ATOM     30  C   UNL     1      62.647 -50.610 -49.191  0.00  0.00    -0.056 C 
BRANCH  29  32
ATOM     31  C   UNL     1      64.772 -50.985 -47.240  0.00  0.00    -0.065 C 
ATOM     32  C   UNL     1      63.477 -50.317 -46.799  0.00  0.00    -0.047 C 
ENDBRANCH  29  32
ENDBRANCH   1  29
BRANCH  14  33
ATOM     33  C   UNL     1      49.244 -47.872 -47.921  0.00  0.00    +0.013 C 
ATOM     34  C   UNL     1      48.120 -48.923 -47.839  0.00  0.00    -0.049 C 
BRANCH  33  35
ATOM     35  N   UNL     1      48.916 -46.702 -48.755  0.00  0.00    -0.305 N 
ATOM     36  C   UNL     1      48.807 -45.471 -47.966  0.00  0.00    -0.013 C 
ATOM     37  C   UNL     1      47.758 -46.825 -49.634  0.00  0.00    -0.013 C 
ATOM     38  H   UNL     1      49.721 -46.655 -49.380  0.00  0.00    +0.000 HD
ENDBRANCH  33  35
ENDBRANCH  14  33
BRANCH  15  39
ATOM     39  O   UNL     1      51.201 -47.413 -50.272  0.00  0.00    -0.391 OA
ATOM     40  H   UNL     1      51.440 -47.621 -51.188  0.00  0.00    +0.000 HD
ENDBRANCH  15  39
TORSDOF 5
ENDMDL
MODEL 17
REMARK VINA RESULT:    -6.049     30.225     35.316
REMARK INTER + INTRA:          -8.552
REMARK INTER:                  -7.654
REMARK INTRA:                  -0.898
REMARK UNBOUND:                -0.912
REMARK  Name = cpd82.pdb
REMARK  13 active torsions:
REMARK  status: ('A' for Active; 'I' for Inactive)
REMARK    1  A    between atoms: C_1  and  C_2
REMARK    2  A    between atoms: C_2  and  C_3
REMARK    3  A    between atoms: C_3  and  C_4
REMARK    4  A    between atoms: C_3  and  C_5
REMARK    5  A    between atoms: C_16  and  C_17
REMARK    6  A    between atoms: C_18  and  C_19
REMARK    7  A    between atoms: C_19  and  C_20
REMARK    8  A    between atoms: C_19  and  N_21
REMARK    9  A    between atoms: N_21  and  C_22
REMARK   10  A    between atoms: N_21  and  C_23
REMARK   11  A    between atoms: C_24  and  O_25
REMARK   12  A    between atoms: C_27  and  C_28
REMARK   13  A    between atoms: C_33  and  C_34
REMARK                            x       y       z     vdW  Elec       q    Type
REMARK                         _______ _______ _______ _____ _____    ______ ____
ROOT
ATOM      1  C   UNL     1      58.251 -29.545 -55.388  0.00  0.00    +0.093 C 
ATOM      2  N   UNL     1      58.620 -30.750 -55.634  0.00  0.00    -0.269 N 
ATOM      3  C   UNL     1      57.728 -31.869 -55.283  0.00  0.00    +0.063 C 
ATOM      4  C   UNL     1      57.169 -32.448 -56.592  0.00  0.00    -0.011 C 
ATOM      5  C   UNL     1      56.065 -33.432 -56.362  0.00  0.00    -0.082 C 
ATOM      6  C   UNL     1      55.136 -33.225 -55.413  0.00  0.00    -0.069 C 
ATOM      7  C   UNL     1      53.998 -34.180 -55.211  0.00  0.00    -0.022 C 
ATOM      8  C   UNL     1      52.616 -33.607 -54.805  0.00  0.00    +0.025 C 
ATOM      9  C   UNL     1      51.644 -34.777 -54.871  0.00  0.00    +0.138 C 
ATOM     10  O   UNL     1      52.009 -35.946 -55.020  0.00  0.00    -0.297 OA
ATOM     11  C   UNL     1      50.202 -34.473 -54.620  0.00  0.00    +0.012 C 
ATOM     12  C   UNL     1      49.666 -33.460 -55.640  0.00  0.00    -0.013 C 
ATOM     13  C   UNL     1      49.580 -34.140 -57.020  0.00  0.00    -0.058 C 
ATOM     14  C   UNL     1      48.255 -32.906 -55.199  0.00  0.00    +0.007 C 
ATOM     15  C   UNL     1      48.570 -31.779 -54.190  0.00  0.00    +0.061 C 
ATOM     16  C   UNL     1      50.065 -31.458 -54.352  0.00  0.00    -0.020 C 
ATOM     17  C   UNL     1      50.558 -32.154 -55.647  0.00  0.00    -0.020 C 
ATOM     18  C   UNL     1      50.223 -31.235 -56.865  0.00  0.00    -0.059 C 
ATOM     19  C   UNL     1      52.140 -32.391 -55.649  0.00  0.00    -0.025 C 
ATOM     20  C   UNL     1      52.856 -31.072 -55.192  0.00  0.00    -0.048 C 
ATOM     21  C   UNL     1      54.374 -30.921 -55.379  0.00  0.00    -0.046 C 
ATOM     22  C   UNL     1      55.184 -31.963 -54.589  0.00  0.00    -0.011 C 
ATOM     23  C   UNL     1      56.660 -31.587 -54.173  0.00  0.00    +0.012 C 
ATOM     24  C   UNL     1      57.013 -32.512 -52.962  0.00  0.00    -0.056 C 
ATOM     25  C   UNL     1      56.757 -30.150 -53.633  0.00  0.00    +0.018 C 
ATOM     26  N   UNL     1      57.113 -29.230 -54.693  0.00  0.00    -0.332 N 
ATOM     27  H   UNL     1      59.492 -30.925 -56.056  0.00  0.00    +0.000 HD
ATOM     28  H   UNL     1      56.574 -28.433 -54.900  0.00  0.00    +0.000 HD
ENDROOT
BRANCH   1  29
ATOM     29  C   UNL     1      59.169 -28.390 -55.813  0.00  0.00    +0.011 C 
ATOM     30  C   UNL     1      58.293 -27.173 -56.119  0.00  0.00    -0.056 C 
BRANCH  29  32
ATOM     31  C   UNL     1      59.916 -26.870 -53.894  0.00  0.00    -0.065 C 
ATOM     32  C   UNL     1      60.237 -28.089 -54.748  0.00  0.00    -0.047 C 
ENDBRANCH  29  32
ENDBRANCH   1  29
BRANCH  14  33
ATOM     33  C   UNL     1      47.062 -33.897 -54.978  0.00  0.00    +0.013 C 
ATOM     34  C   UNL     1      45.920 -33.626 -55.977  0.00  0.00    -0.049 C 
BRANCH  33  35
ATOM     35  N   UNL     1      46.609 -34.158 -53.601  0.00  0.00    -0.305 N 
ATOM     36  C   UNL     1      46.882 -35.536 -53.177  0.00  0.00    -0.013 C 
ATOM     37  C   UNL     1      45.227 -33.814 -53.287  0.00  0.00    -0.013 C 
ATOM     38  H   UNL     1      47.175 -33.501 -53.064  0.00  0.00    +0.000 HD
ENDBRANCH  33  35
ENDBRANCH  14  33
BRANCH  15  39
ATOM     39  O   UNL     1      48.344 -32.082 -52.828  0.00  0.00    -0.391 OA
ATOM     40  H   UNL     1      48.104 -33.017 -52.740  0.00  0.00    +0.000 HD
ENDBRANCH  15  39
TORSDOF 5
ENDMDL
MODEL 18
REMARK VINA RESULT:    -6.001     20.803     25.730
REMARK INTER + INTRA:          -8.492
REMARK INTER:                  -7.624
REMARK INTRA:                  -0.868
REMARK UNBOUND:                -0.912
REMARK  Name = cpd82.pdb
REMARK  13 active torsions:
REMARK  status: ('A' for Active; 'I' for Inactive)
REMARK    1  A    between atoms: C_1  and  C_2
REMARK    2  A    between atoms: C_2  and  C_3
REMARK    3  A    between atoms: C_3  and  C_4
REMARK    4  A    between atoms: C_3  and  C_5
REMARK    5  A    between atoms: C_16  and  C_17
REMARK    6  A    between atoms: C_18  and  C_19
REMARK    7  A    between atoms: C_19  and  C_20
REMARK    8  A    between atoms: C_19  and  N_21
REMARK    9  A    between atoms: N_21  and  C_22
REMARK   10  A    between atoms: N_21  and  C_23
REMARK   11  A    between atoms: C_24  and  O_25
REMARK   12  A    between atoms: C_27  and  C_28
REMARK   13  A    between atoms: C_33  and  C_34
REMARK                            x       y       z     vdW  Elec       q    Type
REMARK                         _______ _______ _______ _____ _____    ______ ____
ROOT
ATOM      1  C   UNL     1      47.366 -13.522 -39.874  0.00  0.00    +0.093 C 
ATOM      2  N   UNL     1      46.681 -13.856 -40.908  0.00  0.00    -0.269 N 
ATOM      3  C   UNL     1      45.911 -15.113 -40.894  0.00  0.00    +0.063 C 
ATOM      4  C   UNL     1      44.421 -14.744 -40.813  0.00  0.00    -0.011 C 
ATOM      5  C   UNL     1      43.548 -15.930 -40.549  0.00  0.00    -0.082 C 
ATOM      6  C   UNL     1      43.922 -16.891 -39.688  0.00  0.00    -0.069 C 
ATOM      7  C   UNL     1      43.030 -18.056 -39.379  0.00  0.00    -0.022 C 
ATOM      8  C   UNL     1      43.028 -18.623 -37.936  0.00  0.00    +0.025 C 
ATOM      9  C   UNL     1      41.900 -19.645 -37.892  0.00  0.00    +0.138 C 
ATOM     10  O   UNL     1      41.303 -20.030 -38.899  0.00  0.00    -0.297 OA
ATOM     11  C   UNL     1      41.613 -20.277 -36.567  0.00  0.00    +0.012 C 
ATOM     12  C   UNL     1      41.227 -19.221 -35.524  0.00  0.00    -0.013 C 
ATOM     13  C   UNL     1      39.838 -18.654 -35.879  0.00  0.00    -0.058 C 
ATOM     14  C   UNL     1      41.226 -19.836 -34.070  0.00  0.00    +0.007 C 
ATOM     15  C   UNL     1      42.704 -19.792 -33.621  0.00  0.00    +0.061 C 
ATOM     16  C   UNL     1      43.426 -18.854 -34.602  0.00  0.00    -0.020 C 
ATOM     17  C   UNL     1      42.344 -18.106 -35.423  0.00  0.00    -0.020 C 
ATOM     18  C   UNL     1      41.854 -16.875 -34.596  0.00  0.00    -0.059 C 
ATOM     19  C   UNL     1      42.906 -17.553 -36.814  0.00  0.00    -0.025 C 
ATOM     20  C   UNL     1      44.278 -16.837 -36.565  0.00  0.00    -0.048 C 
ATOM     21  C   UNL     1      44.899 -15.965 -37.668  0.00  0.00    -0.046 C 
ATOM     22  C   UNL     1      45.227 -16.756 -38.946  0.00  0.00    -0.011 C 
ATOM     23  C   UNL     1      46.379 -16.206 -39.876  0.00  0.00    +0.012 C 
ATOM     24  C   UNL     1      46.869 -17.428 -40.721  0.00  0.00    -0.056 C 
ATOM     25  C   UNL     1      47.605 -15.751 -39.066  0.00  0.00    +0.018 C 
ATOM     26  N   UNL     1      47.530 -14.333 -38.782  0.00  0.00    -0.332 N 
ATOM     27  H   UNL     1      46.670 -13.278 -41.704  0.00  0.00    +0.000 HD
ATOM     28  H   UNL     1      47.594 -13.976 -37.866  0.00  0.00    +0.000 HD
ENDROOT
BRANCH   1  29
ATOM     29  C   UNL     1      48.116 -12.183 -39.886  0.00  0.00    +0.011 C 
ATOM     30  C   UNL     1      48.700 -11.950 -38.491  0.00  0.00    -0.056 C 
BRANCH  29  32
ATOM     31  C   UNL     1      50.294 -13.175 -40.795  0.00  0.00    -0.065 C 
ATOM     32  C   UNL     1      49.192 -12.142 -40.985  0.00  0.00    -0.047 C 
ENDBRANCH  29  32
ENDBRANCH   1  29
BRANCH  14  33
ATOM     33  C   UNL     1      40.302 -21.058 -33.740  0.00  0.00    +0.013 C 
ATOM     34  C   UNL     1      39.497 -20.816 -32.449  0.00  0.00    -0.049 C 
BRANCH  33  35
ATOM     35  N   UNL     1      40.863 -22.416 -33.855  0.00  0.00    -0.305 N 
ATOM     36  C   UNL     1      40.286 -23.162 -34.978  0.00  0.00    -0.013 C 
ATOM     37  C   UNL     1      40.839 -23.242 -32.654  0.00  0.00    -0.013 C 
ATOM     38  H   UNL     1      41.851 -22.223 -34.026  0.00  0.00    +0.000 HD
ENDBRANCH  33  35
ENDBRANCH  14  33
BRANCH  15  39
ATOM     39  O   UNL     1      43.392 -21.026 -33.626  0.00  0.00    -0.391 OA
ATOM     40  H   UNL     1      43.299 -21.446 -34.495  0.00  0.00    +0.000 HD
ENDBRANCH  15  39
TORSDOF 5
ENDMDL
MODEL 19
REMARK VINA RESULT:    -5.949      6.274      9.153
REMARK INTER + INTRA:          -8.426
REMARK INTER:                  -7.939
REMARK INTRA:                  -0.487
REMARK UNBOUND:                -0.912
REMARK  Name = cpd82.pdb
REMARK  13 active torsions:
REMARK  status: ('A' for Active; 'I' for Inactive)
REMARK    1  A    between atoms: C_1  and  C_2
REMARK    2  A    between atoms: C_2  and  C_3
REMARK    3  A    between atoms: C_3  and  C_4
REMARK    4  A    between atoms: C_3  and  C_5
REMARK    5  A    between atoms: C_16  and  C_17
REMARK    6  A    between atoms: C_18  and  C_19
REMARK    7  A    between atoms: C_19  and  C_20
REMARK    8  A    between atoms: C_19  and  N_21
REMARK    9  A    between atoms: N_21  and  C_22
REMARK   10  A    between atoms: N_21  and  C_23
REMARK   11  A    between atoms: C_24  and  O_25
REMARK   12  A    between atoms: C_27  and  C_28
REMARK   13  A    between atoms: C_33  and  C_34
REMARK                            x       y       z     vdW  Elec       q    Type
REMARK                         _______ _______ _______ _____ _____    ______ ____
ROOT
ATOM      1  C   UNL     1      34.100 -40.410 -27.736  0.00  0.00    +0.093 C 
ATOM      2  N   UNL     1      35.232 -39.818 -27.874  0.00  0.00    -0.269 N 
ATOM      3  C   UNL     1      35.331 -38.636 -28.749  0.00  0.00    +0.063 C 
ATOM      4  C   UNL     1      35.517 -37.405 -27.848  0.00  0.00    -0.011 C 
ATOM      5  C   UNL     1      35.390 -36.117 -28.599  0.00  0.00    -0.082 C 
ATOM      6  C   UNL     1      34.461 -35.960 -29.557  0.00  0.00    -0.069 C 
ATOM      7  C   UNL     1      34.293 -34.657 -30.278  0.00  0.00    -0.022 C 
ATOM      8  C   UNL     1      32.863 -34.216 -30.685  0.00  0.00    +0.025 C 
ATOM      9  C   UNL     1      32.999 -32.792 -31.207  0.00  0.00    +0.138 C 
ATOM     10  O   UNL     1      34.089 -32.257 -31.424  0.00  0.00    -0.297 OA
ATOM     11  C   UNL     1      31.735 -32.085 -31.578  0.00  0.00    +0.012 C 
ATOM     12  C   UNL     1      30.791 -31.972 -30.373  0.00  0.00    -0.013 C 
ATOM     13  C   UNL     1      31.392 -30.976 -29.362  0.00  0.00    -0.058 C 
ATOM     14  C   UNL     1      29.350 -31.513 -30.823  0.00  0.00    +0.007 C 
ATOM     15  C   UNL     1      28.652 -32.808 -31.295  0.00  0.00    +0.061 C 
ATOM     16  C   UNL     1      29.507 -33.975 -30.775  0.00  0.00    -0.020 C 
ATOM     17  C   UNL     1      30.516 -33.399 -29.748  0.00  0.00    -0.020 C 
ATOM     18  C   UNL     1      29.807 -33.292 -28.361  0.00  0.00    -0.059 C 
ATOM     19  C   UNL     1      31.797 -34.337 -29.559  0.00  0.00    -0.025 C 
ATOM     20  C   UNL     1      31.325 -35.822 -29.386  0.00  0.00    -0.048 C 
ATOM     21  C   UNL     1      32.317 -36.890 -28.899  0.00  0.00    -0.046 C 
ATOM     22  C   UNL     1      33.505 -37.087 -29.857  0.00  0.00    -0.011 C 
ATOM     23  C   UNL     1      34.229 -38.491 -29.852  0.00  0.00    +0.012 C 
ATOM     24  C   UNL     1      34.956 -38.604 -31.232  0.00  0.00    -0.056 C 
ATOM     25  C   UNL     1      33.226 -39.656 -29.820  0.00  0.00    +0.018 C 
ATOM     26  N   UNL     1      32.982 -40.082 -28.458  0.00  0.00    -0.332 N 
ATOM     27  H   UNL     1      36.027 -40.152 -27.399  0.00  0.00    +0.000 HD
ATOM     28  H   UNL     1      32.076 -40.134 -28.077  0.00  0.00    +0.000 HD
ENDROOT
BRANCH   1  29
ATOM     29  C   UNL     1      34.004 -41.605 -26.776  0.00  0.00    +0.011 C 
ATOM     30  C   UNL     1      33.308 -41.134 -25.497  0.00  0.00    -0.056 C 
BRANCH  29  32
ATOM     31  C   UNL     1      34.237 -43.867 -27.951  0.00  0.00    -0.065 C 
ATOM     32  C   UNL     1      33.287 -42.800 -27.426  0.00  0.00    -0.047 C 
ENDBRANCH  29  32
ENDBRANCH   1  29
BRANCH  14  33
ATOM     33  C   UNL     1      29.166 -30.155 -31.584  0.00  0.00    +0.013 C 
ATOM     34  C   UNL     1      29.286 -28.957 -30.622  0.00  0.00    -0.049 C 
BRANCH  33  35
ATOM     35  N   UNL     1      28.069 -30.038 -32.560  0.00  0.00    -0.305 N 
ATOM     36  C   UNL     1      28.349 -29.037 -33.594  0.00  0.00    -0.013 C 
ATOM     37  C   UNL     1      26.730 -29.824 -32.021  0.00  0.00    -0.013 C 
ATOM     38  H   UNL     1      28.045 -30.974 -32.966  0.00  0.00    +0.000 HD
ENDBRANCH  33  35
ENDBRANCH  14  33
BRANCH  15  39
ATOM     39  O   UNL     1      28.516 -32.968 -32.693  0.00  0.00    -0.391 OA
ATOM     40  H   UNL     1      27.880 -33.676 -32.877  0.00  0.00    +0.000 HD
ENDBRANCH  15  39
TORSDOF 5
ENDMDL
MODEL 20
REMARK VINA RESULT:    -5.763      6.878      8.898
REMARK INTER + INTRA:          -8.191
REMARK INTER:                  -7.290
REMARK INTRA:                  -0.901
REMARK UNBOUND:                -0.912
REMARK  Name = cpd82.pdb
REMARK  13 active torsions:
REMARK  status: ('A' for Active; 'I' for Inactive)
REMARK    1  A    between atoms: C_1  and  C_2
REMARK    2  A    between atoms: C_2  and  C_3
REMARK    3  A    between atoms: C_3  and  C_4
REMARK    4  A    between atoms: C_3  and  C_5
REMARK    5  A    between atoms: C_16  and  C_17
REMARK    6  A    between atoms: C_18  and  C_19
REMARK    7  A    between atoms: C_19  and  C_20
REMARK    8  A    between atoms: C_19  and  N_21
REMARK    9  A    between atoms: N_21  and  C_22
REMARK   10  A    between atoms: N_21  and  C_23
REMARK   11  A    between atoms: C_24  and  O_25
REMARK   12  A    between atoms: C_27  and  C_28
REMARK   13  A    between atoms: C_33  and  C_34
REMARK                            x       y       z     vdW  Elec       q    Type
REMARK                         _______ _______ _______ _____ _____    ______ ____
ROOT
ATOM      1  C   UNL     1      35.688 -37.521 -29.808  0.00  0.00    +0.093 C 
ATOM      2  N   UNL     1      36.215 -36.410 -30.179  0.00  0.00    -0.269 N 
ATOM      3  C   UNL     1      35.375 -35.390 -30.832  0.00  0.00    +0.063 C 
ATOM      4  C   UNL     1      35.186 -34.236 -29.835  0.00  0.00    -0.011 C 
ATOM      5  C   UNL     1      34.157 -33.248 -30.287  0.00  0.00    -0.082 C 
ATOM      6  C   UNL     1      33.020 -33.651 -30.880  0.00  0.00    -0.069 C 
ATOM      7  C   UNL     1      31.961 -32.671 -31.288  0.00  0.00    -0.022 C 
ATOM      8  C   UNL     1      30.475 -33.097 -31.166  0.00  0.00    +0.025 C 
ATOM      9  C   UNL     1      29.658 -31.846 -31.459  0.00  0.00    +0.138 C 
ATOM     10  O   UNL     1      30.155 -30.807 -31.900  0.00  0.00    -0.297 OA
ATOM     11  C   UNL     1      28.174 -31.957 -31.308  0.00  0.00    +0.012 C 
ATOM     12  C   UNL     1      27.793 -32.348 -29.874  0.00  0.00    -0.013 C 
ATOM     13  C   UNL     1      28.089 -31.159 -28.939  0.00  0.00    -0.058 C 
ATOM     14  C   UNL     1      26.274 -32.765 -29.786  0.00  0.00    +0.007 C 
ATOM     15  C   UNL     1      26.243 -34.242 -30.237  0.00  0.00    +0.061 C 
ATOM     16  C   UNL     1      27.698 -34.736 -30.201  0.00  0.00    -0.020 C 
ATOM     17  C   UNL     1      28.538 -33.675 -29.444  0.00  0.00    -0.020 C 
ATOM     18  C   UNL     1      28.405 -33.937 -27.910  0.00  0.00    -0.059 C 
ATOM     19  C   UNL     1      30.093 -33.752 -29.809  0.00  0.00    -0.025 C 
ATOM     20  C   UNL     1      30.559 -35.249 -29.753  0.00  0.00    -0.048 C 
ATOM     21  C   UNL     1      32.058 -35.585 -29.774  0.00  0.00    -0.046 C 
ATOM     22  C   UNL     1      32.760 -35.125 -31.063  0.00  0.00    -0.011 C 
ATOM     23  C   UNL     1      34.060 -35.901 -31.511  0.00  0.00    +0.012 C 
ATOM     24  C   UNL     1      34.212 -35.634 -33.045  0.00  0.00    -0.056 C 
ATOM     25  C   UNL     1      33.896 -37.425 -31.375  0.00  0.00    +0.018 C 
ATOM     26  N   UNL     1      34.396 -37.879 -30.095  0.00  0.00    -0.332 N 
ATOM     27  H   UNL     1      37.173 -36.241 -30.028  0.00  0.00    +0.000 HD
ATOM     28  H   UNL     1      33.847 -38.408 -29.472  0.00  0.00    +0.000 HD
ENDROOT
BRANCH   1  29
ATOM     29  C   UNL     1      36.566 -38.548 -29.078  0.00  0.00    +0.011 C 
ATOM     30  C   UNL     1      37.118 -37.890 -27.812  0.00  0.00    -0.056 C 
BRANCH  29  32
ATOM     31  C   UNL     1      36.154 -40.996 -29.701  0.00  0.00    -0.065 C 
ATOM     32  C   UNL     1      35.794 -39.843 -28.774  0.00  0.00    -0.047 C 
ENDBRANCH  29  32
ENDBRANCH   1  29
BRANCH  14  33
ATOM     33  C   UNL     1      25.160 -31.750 -30.218  0.00  0.00    +0.013 C 
ATOM     34  C   UNL     1      24.311 -31.308 -29.010  0.00  0.00    -0.049 C 
BRANCH  33  35
ATOM     35  N   UNL     1      24.377 -32.038 -31.432  0.00  0.00    -0.305 N 
ATOM     36  C   UNL     1      24.603 -31.045 -32.487  0.00  0.00    -0.013 C 
ATOM     37  C   UNL     1      22.945 -32.250 -31.257  0.00  0.00    -0.013 C 
ATOM     38  H   UNL     1      24.748 -32.947 -31.712  0.00  0.00    +0.000 HD
ENDBRANCH  33  35
ENDBRANCH  14  33
BRANCH  15  39
ATOM     39  O   UNL     1      25.741 -34.487 -31.535  0.00  0.00    -0.391 OA
ATOM     40  H   UNL     1      25.164 -35.267 -31.517  0.00  0.00    +0.000 HD
ENDBRANCH  15  39
TORSDOF 5
ENDMDL
