MODEL 1
REMARK VINA RESULT:    -8.885      0.000      0.000
REMARK INTER + INTRA:         -14.181
REMARK INTER:                 -13.560
REMARK INTRA:                  -0.621
REMARK UNBOUND:                -0.621
REMARK  Name = cpd269.pdb
REMARK  10 active torsions:
REMARK  status: ('A' for Active; 'I' for Inactive)
REMARK    1  A    between atoms: C_1  and  N_2
REMARK    2  A    between atoms: N_2  and  C_3
REMARK    3  A    between atoms: N_2  and  C_20
REMARK    4  A    between atoms: C_3  and  C_4
REMARK    5  A    between atoms: C_4  and  C_5
REMARK    6  A    between atoms: C_5  and  C_6
REMARK    7  A    between atoms: C_6  and  N_7
REMARK    8  A    between atoms: N_7  and  C_8
REMARK    9  A    between atoms: C_11  and  C_12
REMARK   10  A    between atoms: C_20  and  C_21
REMARK                            x       y       z     vdW  Elec       q    Type
REMARK                         _______ _______ _______ _____ _____    ______ ____
ROOT
ATOM      1  C   UNL     1      42.958 -38.528 -30.846  0.00  0.00    +0.011 C 
ENDROOT
BRANCH   1   2
ATOM      2  N   UNL     1      43.477 -39.296 -29.713  0.00  0.00    -0.328 N 
ATOM      3  H   UNL     1      42.907 -39.835 -29.117  0.00  0.00    +0.000 HD
BRANCH   2   4
ATOM      4  C   UNL     1      44.866 -39.187 -29.561  0.00  0.00    +0.141 A 
ATOM      5  C   UNL     1      45.647 -40.246 -29.130  0.00  0.00    -0.018 A 
ATOM      6  C   UNL     1      47.024 -40.077 -28.996  0.00  0.00    -0.031 A 
ATOM      7  C   UNL     1      47.594 -38.847 -29.299  0.00  0.00    +0.093 A 
ATOM      8  N   UNL     1      46.807 -37.840 -29.739  0.00  0.00    -0.147 NA
ATOM      9  N   UNL     1      45.443 -38.014 -29.876  0.00  0.00    -0.134 NA
BRANCH   7  10
ATOM     10  C   UNL     1      49.037 -38.557 -29.188  0.00  0.00    +0.002 A 
ATOM     11  C   UNL     1      49.637 -38.194 -27.967  0.00  0.00    -0.053 A 
ATOM     12  C   UNL     1      51.007 -37.924 -27.879  0.00  0.00    -0.061 A 
ATOM     13  C   UNL     1      51.809 -38.006 -29.014  0.00  0.00    -0.062 A 
ATOM     14  C   UNL     1      51.242 -38.354 -30.234  0.00  0.00    -0.061 A 
ATOM     15  C   UNL     1      49.873 -38.622 -30.319  0.00  0.00    -0.053 A 
ENDBRANCH   7  10
ENDBRANCH   2   4
ENDBRANCH   1   2
BRANCH   1  16
ATOM     16  C   UNL     1      41.605 -37.924 -30.471  0.00  0.00    -0.036 C 
BRANCH  16  17
ATOM     17  C   UNL     1      41.086 -36.880 -31.467  0.00  0.00    -0.039 C 
BRANCH  17  18
ATOM     18  C   UNL     1      40.228 -35.758 -30.860  0.00  0.00    -0.001 C 
BRANCH  18  20
ATOM     19  C   UNL     1      39.084 -35.766 -32.967  0.00  0.00    -0.012 C 
ATOM     20  N   UNL     1      38.933 -35.522 -31.524  0.00  0.00    -0.301 N 
ATOM     21  H   UNL     1      38.654 -34.555 -31.361  0.00  0.00    +0.000 HD
BRANCH  20  22
ATOM     22  C   UNL     1      37.871 -36.387 -30.967  0.00  0.00    +0.024 C 
BRANCH  22  23
ATOM     23  C   UNL     1      36.652 -35.641 -30.454  0.00  0.00    -0.033 A 
ATOM     24  C   UNL     1      36.287 -34.389 -30.972  0.00  0.00    -0.057 A 
ATOM     25  C   UNL     1      35.183 -33.700 -30.466  0.00  0.00    -0.061 A 
ATOM     26  C   UNL     1      34.438 -34.247 -29.424  0.00  0.00    -0.062 A 
ATOM     27  C   UNL     1      34.796 -35.483 -28.888  0.00  0.00    -0.061 A 
ATOM     28  C   UNL     1      35.899 -36.174 -29.397  0.00  0.00    -0.057 A 
ENDBRANCH  22  23
ENDBRANCH  20  22
ENDBRANCH  18  20
ENDBRANCH  17  18
ENDBRANCH  16  17
ENDBRANCH   1  16
TORSDOF 9
ENDMDL
MODEL 2
REMARK VINA RESULT:    -8.491      2.583      3.247
REMARK INTER + INTRA:         -13.579
REMARK INTER:                 -12.958
REMARK INTRA:                  -0.621
REMARK UNBOUND:                -0.621
REMARK  Name = cpd269.pdb
REMARK  10 active torsions:
REMARK  status: ('A' for Active; 'I' for Inactive)
REMARK    1  A    between atoms: C_1  and  N_2
REMARK    2  A    between atoms: N_2  and  C_3
REMARK    3  A    between atoms: N_2  and  C_20
REMARK    4  A    between atoms: C_3  and  C_4
REMARK    5  A    between atoms: C_4  and  C_5
REMARK    6  A    between atoms: C_5  and  C_6
REMARK    7  A    between atoms: C_6  and  N_7
REMARK    8  A    between atoms: N_7  and  C_8
REMARK    9  A    between atoms: C_11  and  C_12
REMARK   10  A    between atoms: C_20  and  C_21
REMARK                            x       y       z     vdW  Elec       q    Type
REMARK                         _______ _______ _______ _____ _____    ______ ____
ROOT
ATOM      1  C   UNL     1      42.297 -38.896 -29.956  0.00  0.00    +0.011 C 
ENDROOT
BRANCH   1   2
ATOM      2  N   UNL     1      43.045 -40.097 -29.578  0.00  0.00    -0.328 N 
ATOM      3  H   UNL     1      42.615 -40.939 -29.303  0.00  0.00    +0.000 HD
BRANCH   2   4
ATOM      4  C   UNL     1      44.435 -39.926 -29.645  0.00  0.00    +0.141 A 
ATOM      5  C   UNL     1      45.301 -40.989 -29.837  0.00  0.00    -0.018 A 
ATOM      6  C   UNL     1      46.674 -40.757 -29.893  0.00  0.00    -0.031 A 
ATOM      7  C   UNL     1      47.154 -39.461 -29.758  0.00  0.00    +0.093 A 
ATOM      8  N   UNL     1      46.282 -38.443 -29.595  0.00  0.00    -0.147 NA
ATOM      9  N   UNL     1      44.921 -38.676 -29.545  0.00  0.00    -0.134 NA
BRANCH   7  10
ATOM     10  C   UNL     1      48.586 -39.104 -29.797  0.00  0.00    +0.002 A 
ATOM     11  C   UNL     1      49.207 -38.380 -28.761  0.00  0.00    -0.053 A 
ATOM     12  C   UNL     1      50.566 -38.052 -28.814  0.00  0.00    -0.061 A 
ATOM     13  C   UNL     1      51.336 -38.437 -29.907  0.00  0.00    -0.062 A 
ATOM     14  C   UNL     1      50.748 -39.145 -30.948  0.00  0.00    -0.061 A 
ATOM     15  C   UNL     1      49.389 -39.472 -30.893  0.00  0.00    -0.053 A 
ENDBRANCH   7  10
ENDBRANCH   2   4
ENDBRANCH   1   2
BRANCH   1  16
ATOM     16  C   UNL     1      41.234 -38.607 -28.897  0.00  0.00    -0.036 C 
BRANCH  16  17
ATOM     17  C   UNL     1      40.030 -37.812 -29.416  0.00  0.00    -0.039 C 
BRANCH  17  18
ATOM     18  C   UNL     1      38.677 -38.175 -28.783  0.00  0.00    -0.001 C 
BRANCH  18  20
ATOM     19  C   UNL     1      37.956 -36.392 -30.215  0.00  0.00    -0.012 C 
ATOM     20  N   UNL     1      37.502 -37.515 -29.381  0.00  0.00    -0.301 N 
ATOM     21  H   UNL     1      36.903 -37.172 -28.629  0.00  0.00    +0.000 HD
BRANCH  20  22
ATOM     22  C   UNL     1      36.700 -38.460 -30.187  0.00  0.00    +0.024 C 
BRANCH  22  23
ATOM     23  C   UNL     1      35.933 -39.491 -29.377  0.00  0.00    -0.033 A 
ATOM     24  C   UNL     1      34.812 -39.136 -28.611  0.00  0.00    -0.057 A 
ATOM     25  C   UNL     1      34.139 -40.089 -27.845  0.00  0.00    -0.061 A 
ATOM     26  C   UNL     1      34.587 -41.407 -27.821  0.00  0.00    -0.062 A 
ATOM     27  C   UNL     1      35.708 -41.773 -28.564  0.00  0.00    -0.061 A 
ATOM     28  C   UNL     1      36.380 -40.820 -29.334  0.00  0.00    -0.057 A 
ENDBRANCH  22  23
ENDBRANCH  20  22
ENDBRANCH  18  20
ENDBRANCH  17  18
ENDBRANCH  16  17
ENDBRANCH   1  16
TORSDOF 9
ENDMDL
MODEL 3
REMARK VINA RESULT:    -7.713      8.225     10.501
REMARK INTER + INTRA:         -12.392
REMARK INTER:                  -9.085
REMARK INTRA:                  -3.306
REMARK UNBOUND:                -0.621
REMARK  Name = cpd269.pdb
REMARK  10 active torsions:
REMARK  status: ('A' for Active; 'I' for Inactive)
REMARK    1  A    between atoms: C_1  and  N_2
REMARK    2  A    between atoms: N_2  and  C_3
REMARK    3  A    between atoms: N_2  and  C_20
REMARK    4  A    between atoms: C_3  and  C_4
REMARK    5  A    between atoms: C_4  and  C_5
REMARK    6  A    between atoms: C_5  and  C_6
REMARK    7  A    between atoms: C_6  and  N_7
REMARK    8  A    between atoms: N_7  and  C_8
REMARK    9  A    between atoms: C_11  and  C_12
REMARK   10  A    between atoms: C_20  and  C_21
REMARK                            x       y       z     vdW  Elec       q    Type
REMARK                         _______ _______ _______ _____ _____    ______ ____
ROOT
ATOM      1  C   UNL     1      37.285 -39.923 -28.801  0.00  0.00    +0.011 C 
ENDROOT
BRANCH   1   2
ATOM      2  N   UNL     1      37.002 -38.885 -27.807  0.00  0.00    -0.328 N 
ATOM      3  H   UNL     1      37.123 -39.015 -26.838  0.00  0.00    +0.000 HD
BRANCH   2   4
ATOM      4  C   UNL     1      36.543 -37.688 -28.373  0.00  0.00    +0.141 A 
ATOM      5  C   UNL     1      37.207 -37.062 -29.415  0.00  0.00    -0.018 A 
ATOM      6  C   UNL     1      36.703 -35.871 -29.936  0.00  0.00    -0.031 A 
ATOM      7  C   UNL     1      35.540 -35.330 -29.403  0.00  0.00    +0.093 A 
ATOM      8  N   UNL     1      34.903 -35.978 -28.402  0.00  0.00    -0.147 NA
ATOM      9  N   UNL     1      35.403 -37.161 -27.893  0.00  0.00    -0.134 NA
BRANCH   7  10
ATOM     10  C   UNL     1      34.923 -34.075 -29.875  0.00  0.00    +0.002 A 
ATOM     11  C   UNL     1      35.491 -33.301 -30.906  0.00  0.00    -0.053 A 
ATOM     12  C   UNL     1      34.891 -32.114 -31.341  0.00  0.00    -0.061 A 
ATOM     13  C   UNL     1      33.711 -31.670 -30.752  0.00  0.00    -0.062 A 
ATOM     14  C   UNL     1      33.133 -32.409 -29.726  0.00  0.00    -0.061 A 
ATOM     15  C   UNL     1      33.735 -33.595 -29.292  0.00  0.00    -0.053 A 
ENDBRANCH   7  10
ENDBRANCH   2   4
ENDBRANCH   1   2
BRANCH   1  16
ATOM     16  C   UNL     1      36.016 -40.735 -29.059  0.00  0.00    -0.036 C 
BRANCH  16  17
ATOM     17  C   UNL     1      35.633 -40.847 -30.539  0.00  0.00    -0.039 C 
BRANCH  17  18
ATOM     18  C   UNL     1      35.820 -39.565 -31.368  0.00  0.00    -0.001 C 
BRANCH  18  20
ATOM     19  C   UNL     1      33.836 -40.225 -32.541  0.00  0.00    -0.012 C 
ATOM     20  N   UNL     1      34.611 -39.073 -32.054  0.00  0.00    -0.301 N 
ATOM     21  H   UNL     1      34.897 -38.487 -32.839  0.00  0.00    +0.000 HD
BRANCH  20  22
ATOM     22  C   UNL     1      33.781 -38.239 -31.159  0.00  0.00    +0.024 C 
BRANCH  22  23
ATOM     23  C   UNL     1      33.274 -36.951 -31.786  0.00  0.00    -0.033 A 
ATOM     24  C   UNL     1      34.035 -36.247 -32.732  0.00  0.00    -0.057 A 
ATOM     25  C   UNL     1      33.570 -35.046 -33.272  0.00  0.00    -0.061 A 
ATOM     26  C   UNL     1      32.345 -34.526 -32.864  0.00  0.00    -0.062 A 
ATOM     27  C   UNL     1      31.584 -35.206 -31.915  0.00  0.00    -0.061 A 
ATOM     28  C   UNL     1      32.047 -36.409 -31.375  0.00  0.00    -0.057 A 
ENDBRANCH  22  23
ENDBRANCH  20  22
ENDBRANCH  18  20
ENDBRANCH  17  18
ENDBRANCH  16  17
ENDBRANCH   1  16
TORSDOF 9
ENDMDL
MODEL 4
REMARK VINA RESULT:    -7.699      3.447      5.243
REMARK INTER + INTRA:         -12.372
REMARK INTER:                 -11.260
REMARK INTRA:                  -1.112
REMARK UNBOUND:                -0.621
REMARK  Name = cpd269.pdb
REMARK  10 active torsions:
REMARK  status: ('A' for Active; 'I' for Inactive)
REMARK    1  A    between atoms: C_1  and  N_2
REMARK    2  A    between atoms: N_2  and  C_3
REMARK    3  A    between atoms: N_2  and  C_20
REMARK    4  A    between atoms: C_3  and  C_4
REMARK    5  A    between atoms: C_4  and  C_5
REMARK    6  A    between atoms: C_5  and  C_6
REMARK    7  A    between atoms: C_6  and  N_7
REMARK    8  A    between atoms: N_7  and  C_8
REMARK    9  A    between atoms: C_11  and  C_12
REMARK   10  A    between atoms: C_20  and  C_21
REMARK                            x       y       z     vdW  Elec       q    Type
REMARK                         _______ _______ _______ _____ _____    ______ ____
ROOT
ATOM      1  C   UNL     1      39.451 -36.143 -32.247  0.00  0.00    +0.011 C 
ENDROOT
BRANCH   1   2
ATOM      2  N   UNL     1      40.042 -36.010 -30.914  0.00  0.00    -0.328 N 
ATOM      3  H   UNL     1      39.764 -35.324 -30.263  0.00  0.00    +0.000 HD
BRANCH   2   4
ATOM      4  C   UNL     1      41.043 -36.957 -30.656  0.00  0.00    +0.141 A 
ATOM      5  C   UNL     1      42.254 -36.952 -31.328  0.00  0.00    -0.018 A 
ATOM      6  C   UNL     1      43.211 -37.922 -31.031  0.00  0.00    -0.031 A 
ATOM      7  C   UNL     1      42.936 -38.878 -30.063  0.00  0.00    +0.093 A 
ATOM      8  N   UNL     1      41.753 -38.842 -29.409  0.00  0.00    -0.147 NA
ATOM      9  N   UNL     1      40.810 -37.876 -29.703  0.00  0.00    -0.134 NA
BRANCH   7  10
ATOM     10  C   UNL     1      43.872 -39.951 -29.674  0.00  0.00    +0.002 A 
ATOM     11  C   UNL     1      44.348 -40.089 -28.356  0.00  0.00    -0.053 A 
ATOM     12  C   UNL     1      45.235 -41.113 -28.005  0.00  0.00    -0.061 A 
ATOM     13  C   UNL     1      45.670 -42.021 -28.966  0.00  0.00    -0.062 A 
ATOM     14  C   UNL     1      45.223 -41.903 -30.277  0.00  0.00    -0.061 A 
ATOM     15  C   UNL     1      44.337 -40.879 -30.625  0.00  0.00    -0.053 A 
ENDBRANCH   7  10
ENDBRANCH   2   4
ENDBRANCH   1   2
BRANCH   1  16
ATOM     16  C   UNL     1      37.966 -35.788 -32.179  0.00  0.00    -0.036 C 
BRANCH  16  17
ATOM     17  C   UNL     1      37.454 -35.498 -30.763  0.00  0.00    -0.039 C 
BRANCH  17  18
ATOM     18  C   UNL     1      35.991 -35.034 -30.673  0.00  0.00    -0.001 C 
BRANCH  18  20
ATOM     19  C   UNL     1      33.807 -35.306 -29.721  0.00  0.00    -0.012 C 
ATOM     20  N   UNL     1      35.057 -36.000 -30.066  0.00  0.00    -0.301 N 
ATOM     21  H   UNL     1      35.487 -36.385 -29.224  0.00  0.00    +0.000 HD
BRANCH  20  22
ATOM     22  C   UNL     1      34.780 -37.133 -30.975  0.00  0.00    +0.024 C 
BRANCH  22  23
ATOM     23  C   UNL     1      35.315 -38.473 -30.499  0.00  0.00    -0.033 A 
ATOM     24  C   UNL     1      35.182 -39.633 -31.277  0.00  0.00    -0.057 A 
ATOM     25  C   UNL     1      35.648 -40.864 -30.810  0.00  0.00    -0.061 A 
ATOM     26  C   UNL     1      36.239 -40.953 -29.552  0.00  0.00    -0.062 A 
ATOM     27  C   UNL     1      36.365 -39.813 -28.761  0.00  0.00    -0.061 A 
ATOM     28  C   UNL     1      35.902 -38.580 -29.229  0.00  0.00    -0.057 A 
ENDBRANCH  22  23
ENDBRANCH  20  22
ENDBRANCH  18  20
ENDBRANCH  17  18
ENDBRANCH  16  17
ENDBRANCH   1  16
TORSDOF 9
ENDMDL
MODEL 5
REMARK VINA RESULT:    -7.627      5.734      8.914
REMARK INTER + INTRA:         -12.261
REMARK INTER:                 -10.067
REMARK INTRA:                  -2.195
REMARK UNBOUND:                -0.621
REMARK  Name = cpd269.pdb
REMARK  10 active torsions:
REMARK  status: ('A' for Active; 'I' for Inactive)
REMARK    1  A    between atoms: C_1  and  N_2
REMARK    2  A    between atoms: N_2  and  C_3
REMARK    3  A    between atoms: N_2  and  C_20
REMARK    4  A    between atoms: C_3  and  C_4
REMARK    5  A    between atoms: C_4  and  C_5
REMARK    6  A    between atoms: C_5  and  C_6
REMARK    7  A    between atoms: C_6  and  N_7
REMARK    8  A    between atoms: N_7  and  C_8
REMARK    9  A    between atoms: C_11  and  C_12
REMARK   10  A    between atoms: C_20  and  C_21
REMARK                            x       y       z     vdW  Elec       q    Type
REMARK                         _______ _______ _______ _____ _____    ______ ____
ROOT
ATOM      1  C   UNL     1      33.143 -36.010 -29.977  0.00  0.00    +0.011 C 
ENDROOT
BRANCH   1   2
ATOM      2  N   UNL     1      33.859 -35.312 -31.047  0.00  0.00    -0.328 N 
ATOM      3  H   UNL     1      33.431 -34.665 -31.653  0.00  0.00    +0.000 HD
BRANCH   2   4
ATOM      4  C   UNL     1      35.215 -35.660 -31.122  0.00  0.00    +0.141 A 
ATOM      5  C   UNL     1      35.646 -36.973 -31.041  0.00  0.00    -0.018 A 
ATOM      6  C   UNL     1      37.009 -37.257 -31.118  0.00  0.00    -0.031 A 
ATOM      7  C   UNL     1      37.915 -36.217 -31.279  0.00  0.00    +0.093 A 
ATOM      8  N   UNL     1      37.461 -34.948 -31.377  0.00  0.00    -0.147 NA
ATOM      9  N   UNL     1      36.109 -34.672 -31.305  0.00  0.00    -0.134 NA
BRANCH   7  10
ATOM     10  C   UNL     1      39.377 -36.404 -31.368  0.00  0.00    +0.002 A 
ATOM     11  C   UNL     1      40.090 -37.193 -30.445  0.00  0.00    -0.053 A 
ATOM     12  C   UNL     1      41.475 -37.359 -30.545  0.00  0.00    -0.061 A 
ATOM     13  C   UNL     1      42.182 -36.737 -31.570  0.00  0.00    -0.062 A 
ATOM     14  C   UNL     1      41.505 -35.945 -32.490  0.00  0.00    -0.061 A 
ATOM     15  C   UNL     1      40.121 -35.779 -32.387  0.00  0.00    -0.053 A 
ENDBRANCH   7  10
ENDBRANCH   2   4
ENDBRANCH   1   2
BRANCH   1  16
ATOM     16  C   UNL     1      33.264 -35.207 -28.682  0.00  0.00    -0.036 C 
BRANCH  16  17
ATOM     17  C   UNL     1      32.882 -35.991 -27.420  0.00  0.00    -0.039 C 
BRANCH  17  18
ATOM     18  C   UNL     1      32.314 -37.399 -27.665  0.00  0.00    -0.001 C 
BRANCH  18  20
ATOM     19  C   UNL     1      32.158 -39.353 -26.284  0.00  0.00    -0.012 C 
ATOM     20  N   UNL     1      33.078 -38.504 -27.058  0.00  0.00    -0.301 N 
ATOM     21  H   UNL     1      33.790 -38.109 -26.443  0.00  0.00    +0.000 HD
BRANCH  20  22
ATOM     22  C   UNL     1      33.777 -39.308 -28.083  0.00  0.00    +0.024 C 
BRANCH  22  23
ATOM     23  C   UNL     1      35.282 -39.107 -28.127  0.00  0.00    -0.033 A 
ATOM     24  C   UNL     1      36.133 -40.067 -28.697  0.00  0.00    -0.057 A 
ATOM     25  C   UNL     1      37.517 -39.882 -28.698  0.00  0.00    -0.061 A 
ATOM     26  C   UNL     1      38.070 -38.744 -28.118  0.00  0.00    -0.062 A 
ATOM     27  C   UNL     1      37.239 -37.788 -27.535  0.00  0.00    -0.061 A 
ATOM     28  C   UNL     1      35.853 -37.970 -27.536  0.00  0.00    -0.057 A 
ENDBRANCH  22  23
ENDBRANCH  20  22
ENDBRANCH  18  20
ENDBRANCH  17  18
ENDBRANCH  16  17
ENDBRANCH   1  16
TORSDOF 9
ENDMDL
MODEL 6
REMARK VINA RESULT:    -7.577      3.619      4.972
REMARK INTER + INTRA:         -12.185
REMARK INTER:                 -11.484
REMARK INTRA:                  -0.701
REMARK UNBOUND:                -0.621
REMARK  Name = cpd269.pdb
REMARK  10 active torsions:
REMARK  status: ('A' for Active; 'I' for Inactive)
REMARK    1  A    between atoms: C_1  and  N_2
REMARK    2  A    between atoms: N_2  and  C_3
REMARK    3  A    between atoms: N_2  and  C_20
REMARK    4  A    between atoms: C_3  and  C_4
REMARK    5  A    between atoms: C_4  and  C_5
REMARK    6  A    between atoms: C_5  and  C_6
REMARK    7  A    between atoms: C_6  and  N_7
REMARK    8  A    between atoms: N_7  and  C_8
REMARK    9  A    between atoms: C_11  and  C_12
REMARK   10  A    between atoms: C_20  and  C_21
REMARK                            x       y       z     vdW  Elec       q    Type
REMARK                         _______ _______ _______ _____ _____    ______ ____
ROOT
ATOM      1  C   UNL     1      38.945 -36.478 -31.519  0.00  0.00    +0.011 C 
ENDROOT
BRANCH   1   2
ATOM      2  N   UNL     1      40.165 -35.945 -30.909  0.00  0.00    -0.328 N 
ATOM      3  H   UNL     1      40.316 -34.985 -30.747  0.00  0.00    +0.000 HD
BRANCH   2   4
ATOM      4  C   UNL     1      41.097 -36.939 -30.578  0.00  0.00    +0.141 A 
ATOM      5  C   UNL     1      42.207 -37.200 -31.364  0.00  0.00    -0.018 A 
ATOM      6  C   UNL     1      43.098 -38.204 -30.986  0.00  0.00    -0.031 A 
ATOM      7  C   UNL     1      42.860 -38.925 -29.824  0.00  0.00    +0.093 A 
ATOM      8  N   UNL     1      41.780 -38.630 -29.067  0.00  0.00    -0.147 NA
ATOM      9  N   UNL     1      40.903 -37.631 -29.443  0.00  0.00    -0.134 NA
BRANCH   7  10
ATOM     10  C   UNL     1      43.734 -40.010 -29.333  0.00  0.00    +0.002 A 
ATOM     11  C   UNL     1      44.000 -40.197 -27.964  0.00  0.00    -0.053 A 
ATOM     12  C   UNL     1      44.829 -41.232 -27.517  0.00  0.00    -0.061 A 
ATOM     13  C   UNL     1      45.415 -42.102 -28.431  0.00  0.00    -0.062 A 
ATOM     14  C   UNL     1      45.177 -41.935 -29.790  0.00  0.00    -0.061 A 
ATOM     15  C   UNL     1      44.349 -40.900 -30.234  0.00  0.00    -0.053 A 
ENDBRANCH   7  10
ENDBRANCH   2   4
ENDBRANCH   1   2
BRANCH   1  16
ATOM     16  C   UNL     1      37.730 -35.972 -30.743  0.00  0.00    -0.036 C 
BRANCH  16  17
ATOM     17  C   UNL     1      37.155 -36.986 -29.746  0.00  0.00    -0.039 C 
BRANCH  17  18
ATOM     18  C   UNL     1      36.171 -36.412 -28.715  0.00  0.00    -0.001 C 
BRANCH  18  20
ATOM     19  C   UNL     1      34.899 -37.585 -27.054  0.00  0.00    -0.012 C 
ATOM     20  N   UNL     1      34.960 -37.219 -28.478  0.00  0.00    -0.301 N 
ATOM     21  H   UNL     1      35.011 -38.061 -29.053  0.00  0.00    +0.000 HD
BRANCH  20  22
ATOM     22  C   UNL     1      33.735 -36.490 -28.872  0.00  0.00    +0.024 C 
BRANCH  22  23
ATOM     23  C   UNL     1      33.984 -35.204 -29.640  0.00  0.00    -0.033 A 
ATOM     24  C   UNL     1      34.073 -35.192 -31.041  0.00  0.00    -0.057 A 
ATOM     25  C   UNL     1      34.337 -34.007 -31.730  0.00  0.00    -0.061 A 
ATOM     26  C   UNL     1      34.529 -32.820 -31.027  0.00  0.00    -0.062 A 
ATOM     27  C   UNL     1      34.459 -32.818 -29.635  0.00  0.00    -0.061 A 
ATOM     28  C   UNL     1      34.192 -34.003 -28.945  0.00  0.00    -0.057 A 
ENDBRANCH  22  23
ENDBRANCH  20  22
ENDBRANCH  18  20
ENDBRANCH  17  18
ENDBRANCH  16  17
ENDBRANCH   1  16
TORSDOF 9
ENDMDL
MODEL 7
REMARK VINA RESULT:    -7.446      5.253      8.273
REMARK INTER + INTRA:         -11.985
REMARK INTER:                 -10.441
REMARK INTRA:                  -1.544
REMARK UNBOUND:                -0.621
REMARK  Name = cpd269.pdb
REMARK  10 active torsions:
REMARK  status: ('A' for Active; 'I' for Inactive)
REMARK    1  A    between atoms: C_1  and  N_2
REMARK    2  A    between atoms: N_2  and  C_3
REMARK    3  A    between atoms: N_2  and  C_20
REMARK    4  A    between atoms: C_3  and  C_4
REMARK    5  A    between atoms: C_4  and  C_5
REMARK    6  A    between atoms: C_5  and  C_6
REMARK    7  A    between atoms: C_6  and  N_7
REMARK    8  A    between atoms: N_7  and  C_8
REMARK    9  A    between atoms: C_11  and  C_12
REMARK   10  A    between atoms: C_20  and  C_21
REMARK                            x       y       z     vdW  Elec       q    Type
REMARK                         _______ _______ _______ _____ _____    ______ ____
ROOT
ATOM      1  C   UNL     1      33.870 -37.370 -29.241  0.00  0.00    +0.011 C 
ENDROOT
BRANCH   1   2
ATOM      2  N   UNL     1      34.788 -36.274 -28.922  0.00  0.00    -0.328 N 
ATOM      3  H   UNL     1      34.504 -35.442 -28.478  0.00  0.00    +0.000 HD
BRANCH   2   4
ATOM      4  C   UNL     1      36.110 -36.530 -29.313  0.00  0.00    +0.141 A 
ATOM      5  C   UNL     1      36.952 -37.346 -28.577  0.00  0.00    -0.018 A 
ATOM      6  C   UNL     1      38.258 -37.561 -29.014  0.00  0.00    -0.031 A 
ATOM      7  C   UNL     1      38.695 -36.954 -30.184  0.00  0.00    +0.093 A 
ATOM      8  N   UNL     1      37.842 -36.181 -30.891  0.00  0.00    -0.147 NA
ATOM      9  N   UNL     1      36.546 -35.975 -30.457  0.00  0.00    -0.134 NA
BRANCH   7  10
ATOM     10  C   UNL     1      40.057 -37.108 -30.734  0.00  0.00    +0.002 A 
ATOM     11  C   UNL     1      41.029 -37.915 -30.113  0.00  0.00    -0.053 A 
ATOM     12  C   UNL     1      42.314 -38.051 -30.650  0.00  0.00    -0.061 A 
ATOM     13  C   UNL     1      42.658 -37.380 -31.819  0.00  0.00    -0.062 A 
ATOM     14  C   UNL     1      41.720 -36.570 -32.449  0.00  0.00    -0.061 A 
ATOM     15  C   UNL     1      40.437 -36.435 -31.911  0.00  0.00    -0.053 A 
ENDBRANCH   7  10
ENDBRANCH   2   4
ENDBRANCH   1   2
BRANCH   1  16
ATOM     16  C   UNL     1      32.936 -37.610 -28.055  0.00  0.00    -0.036 C 
BRANCH  16  17
ATOM     17  C   UNL     1      32.941 -36.483 -27.016  0.00  0.00    -0.039 C 
BRANCH  17  18
ATOM     18  C   UNL     1      31.598 -35.762 -26.819  0.00  0.00    -0.001 C 
BRANCH  18  20
ATOM     19  C   UNL     1      29.778 -34.505 -27.745  0.00  0.00    -0.012 C 
ATOM     20  N   UNL     1      31.193 -34.868 -27.919  0.00  0.00    -0.301 N 
ATOM     21  H   UNL     1      31.320 -35.361 -28.804  0.00  0.00    +0.000 HD
BRANCH  20  22
ATOM     22  C   UNL     1      32.031 -33.652 -27.969  0.00  0.00    +0.024 C 
BRANCH  22  23
ATOM     23  C   UNL     1      32.815 -33.475 -29.258  0.00  0.00    -0.033 A 
ATOM     24  C   UNL     1      32.335 -33.969 -30.481  0.00  0.00    -0.057 A 
ATOM     25  C   UNL     1      33.084 -33.829 -31.651  0.00  0.00    -0.061 A 
ATOM     26  C   UNL     1      34.329 -33.207 -31.612  0.00  0.00    -0.062 A 
ATOM     27  C   UNL     1      34.826 -32.724 -30.403  0.00  0.00    -0.061 A 
ATOM     28  C   UNL     1      34.076 -32.861 -29.231  0.00  0.00    -0.057 A 
ENDBRANCH  22  23
ENDBRANCH  20  22
ENDBRANCH  18  20
ENDBRANCH  17  18
ENDBRANCH  16  17
ENDBRANCH   1  16
TORSDOF 9
ENDMDL
MODEL 8
REMARK VINA RESULT:    -7.324      5.872     10.034
REMARK INTER + INTRA:         -11.799
REMARK INTER:                 -10.937
REMARK INTRA:                  -0.862
REMARK UNBOUND:                -0.621
REMARK  Name = cpd269.pdb
REMARK  10 active torsions:
REMARK  status: ('A' for Active; 'I' for Inactive)
REMARK    1  A    between atoms: C_1  and  N_2
REMARK    2  A    between atoms: N_2  and  C_3
REMARK    3  A    between atoms: N_2  and  C_20
REMARK    4  A    between atoms: C_3  and  C_4
REMARK    5  A    between atoms: C_4  and  C_5
REMARK    6  A    between atoms: C_5  and  C_6
REMARK    7  A    between atoms: C_6  and  N_7
REMARK    8  A    between atoms: N_7  and  C_8
REMARK    9  A    between atoms: C_11  and  C_12
REMARK   10  A    between atoms: C_20  and  C_21
REMARK                            x       y       z     vdW  Elec       q    Type
REMARK                         _______ _______ _______ _____ _____    ______ ____
ROOT
ATOM      1  C   UNL     1      34.188 -38.442 -27.370  0.00  0.00    +0.011 C 
ENDROOT
BRANCH   1   2
ATOM      2  N   UNL     1      35.533 -38.295 -26.810  0.00  0.00    -0.328 N 
ATOM      3  H   UNL     1      35.746 -38.456 -25.862  0.00  0.00    +0.000 HD
BRANCH   2   4
ATOM      4  C   UNL     1      36.486 -37.901 -27.760  0.00  0.00    +0.141 A 
ATOM      5  C   UNL     1      36.290 -36.813 -28.594  0.00  0.00    -0.018 A 
ATOM      6  C   UNL     1      37.273 -36.471 -29.522  0.00  0.00    -0.031 A 
ATOM      7  C   UNL     1      38.437 -37.225 -29.593  0.00  0.00    +0.093 A 
ATOM      8  N   UNL     1      38.607 -38.266 -28.748  0.00  0.00    -0.147 NA
ATOM      9  N   UNL     1      37.633 -38.599 -27.827  0.00  0.00    -0.134 NA
BRANCH   7  10
ATOM     10  C   UNL     1      39.538 -36.955 -30.538  0.00  0.00    +0.002 A 
ATOM     11  C   UNL     1      39.433 -35.986 -31.555  0.00  0.00    -0.053 A 
ATOM     12  C   UNL     1      40.487 -35.743 -32.442  0.00  0.00    -0.061 A 
ATOM     13  C   UNL     1      41.672 -36.465 -32.335  0.00  0.00    -0.062 A 
ATOM     14  C   UNL     1      41.801 -37.433 -31.346  0.00  0.00    -0.061 A 
ATOM     15  C   UNL     1      40.745 -37.676 -30.461  0.00  0.00    -0.053 A 
ENDBRANCH   7  10
ENDBRANCH   2   4
ENDBRANCH   1   2
BRANCH   1  16
ATOM     16  C   UNL     1      33.154 -38.056 -26.312  0.00  0.00    -0.036 C 
BRANCH  16  17
ATOM     17  C   UNL     1      33.495 -36.776 -25.540  0.00  0.00    -0.039 C 
BRANCH  17  18
ATOM     18  C   UNL     1      32.953 -36.708 -24.103  0.00  0.00    -0.001 C 
BRANCH  18  20
ATOM     19  C   UNL     1      34.474 -36.167 -22.330  0.00  0.00    -0.012 C 
ATOM     20  N   UNL     1      33.837 -37.270 -23.066  0.00  0.00    -0.301 N 
ATOM     21  H   UNL     1      34.549 -37.844 -23.519  0.00  0.00    +0.000 HD
BRANCH  20  22
ATOM     22  C   UNL     1      33.094 -38.145 -22.134  0.00  0.00    +0.024 C 
BRANCH  22  23
ATOM     23  C   UNL     1      33.919 -39.266 -21.525  0.00  0.00    -0.033 A 
ATOM     24  C   UNL     1      34.564 -39.113 -20.287  0.00  0.00    -0.057 A 
ATOM     25  C   UNL     1      35.346 -40.141 -19.758  0.00  0.00    -0.061 A 
ATOM     26  C   UNL     1      35.507 -41.330 -20.464  0.00  0.00    -0.062 A 
ATOM     27  C   UNL     1      34.886 -41.492 -21.701  0.00  0.00    -0.061 A 
ATOM     28  C   UNL     1      34.100 -40.465 -22.231  0.00  0.00    -0.057 A 
ENDBRANCH  22  23
ENDBRANCH  20  22
ENDBRANCH  18  20
ENDBRANCH  17  18
ENDBRANCH  16  17
ENDBRANCH   1  16
TORSDOF 9
ENDMDL
MODEL 9
REMARK VINA RESULT:    -7.237      5.974      8.641
REMARK INTER + INTRA:         -11.666
REMARK INTER:                  -9.449
REMARK INTRA:                  -2.217
REMARK UNBOUND:                -0.621
REMARK  Name = cpd269.pdb
REMARK  10 active torsions:
REMARK  status: ('A' for Active; 'I' for Inactive)
REMARK    1  A    between atoms: C_1  and  N_2
REMARK    2  A    between atoms: N_2  and  C_3
REMARK    3  A    between atoms: N_2  and  C_20
REMARK    4  A    between atoms: C_3  and  C_4
REMARK    5  A    between atoms: C_4  and  C_5
REMARK    6  A    between atoms: C_5  and  C_6
REMARK    7  A    between atoms: C_6  and  N_7
REMARK    8  A    between atoms: N_7  and  C_8
REMARK    9  A    between atoms: C_11  and  C_12
REMARK   10  A    between atoms: C_20  and  C_21
REMARK                            x       y       z     vdW  Elec       q    Type
REMARK                         _______ _______ _______ _____ _____    ______ ____
ROOT
ATOM      1  C   UNL     1      32.718 -37.724 -29.266  0.00  0.00    +0.011 C 
ENDROOT
BRANCH   1   2
ATOM      2  N   UNL     1      33.915 -38.160 -28.544  0.00  0.00    -0.328 N 
ATOM      3  H   UNL     1      33.886 -38.713 -27.730  0.00  0.00    +0.000 HD
BRANCH   2   4
ATOM      4  C   UNL     1      35.107 -37.709 -29.129  0.00  0.00    +0.141 A 
ATOM      5  C   UNL     1      35.279 -36.397 -29.537  0.00  0.00    -0.018 A 
ATOM      6  C   UNL     1      36.486 -36.007 -30.115  0.00  0.00    -0.031 A 
ATOM      7  C   UNL     1      37.502 -36.942 -30.271  0.00  0.00    +0.093 A 
ATOM      8  N   UNL     1      37.311 -38.209 -29.842  0.00  0.00    -0.147 NA
ATOM      9  N   UNL     1      36.114 -38.589 -29.264  0.00  0.00    -0.134 NA
BRANCH   7  10
ATOM     10  C   UNL     1      38.815 -36.640 -30.873  0.00  0.00    +0.002 A 
ATOM     11  C   UNL     1      40.021 -37.109 -30.318  0.00  0.00    -0.053 A 
ATOM     12  C   UNL     1      41.257 -36.814 -30.903  0.00  0.00    -0.061 A 
ATOM     13  C   UNL     1      41.316 -36.039 -32.057  0.00  0.00    -0.062 A 
ATOM     14  C   UNL     1      40.142 -35.556 -32.623  0.00  0.00    -0.061 A 
ATOM     15  C   UNL     1      38.908 -35.851 -32.035  0.00  0.00    -0.053 A 
ENDBRANCH   7  10
ENDBRANCH   2   4
ENDBRANCH   1   2
BRANCH   1  16
ATOM     16  C   UNL     1      32.445 -38.687 -30.420  0.00  0.00    -0.036 C 
BRANCH  16  17
ATOM     17  C   UNL     1      32.071 -37.998 -31.738  0.00  0.00    -0.039 C 
BRANCH  17  18
ATOM     18  C   UNL     1      33.227 -37.288 -32.461  0.00  0.00    -0.001 C 
BRANCH  18  20
ATOM     19  C   UNL     1      32.124 -36.365 -34.380  0.00  0.00    -0.012 C 
ATOM     20  N   UNL     1      32.866 -36.036 -33.152  0.00  0.00    -0.301 N 
ATOM     21  H   UNL     1      33.722 -35.534 -33.386  0.00  0.00    +0.000 HD
BRANCH  20  22
ATOM     22  C   UNL     1      32.057 -35.151 -32.287  0.00  0.00    +0.024 C 
BRANCH  22  23
ATOM     23  C   UNL     1      32.867 -34.248 -31.373  0.00  0.00    -0.033 A 
ATOM     24  C   UNL     1      34.025 -33.596 -31.825  0.00  0.00    -0.057 A 
ATOM     25  C   UNL     1      34.778 -32.797 -30.962  0.00  0.00    -0.061 A 
ATOM     26  C   UNL     1      34.392 -32.651 -29.633  0.00  0.00    -0.062 A 
ATOM     27  C   UNL     1      33.253 -33.303 -29.164  0.00  0.00    -0.061 A 
ATOM     28  C   UNL     1      32.497 -34.101 -30.028  0.00  0.00    -0.057 A 
ENDBRANCH  22  23
ENDBRANCH  20  22
ENDBRANCH  18  20
ENDBRANCH  17  18
ENDBRANCH  16  17
ENDBRANCH   1  16
TORSDOF 9
ENDMDL
MODEL 10
REMARK VINA RESULT:    -7.164      6.333      8.784
REMARK INTER + INTRA:         -11.555
REMARK INTER:                 -10.029
REMARK INTRA:                  -1.526
REMARK UNBOUND:                -0.621
REMARK  Name = cpd269.pdb
REMARK  10 active torsions:
REMARK  status: ('A' for Active; 'I' for Inactive)
REMARK    1  A    between atoms: C_1  and  N_2
REMARK    2  A    between atoms: N_2  and  C_3
REMARK    3  A    between atoms: N_2  and  C_20
REMARK    4  A    between atoms: C_3  and  C_4
REMARK    5  A    between atoms: C_4  and  C_5
REMARK    6  A    between atoms: C_5  and  C_6
REMARK    7  A    between atoms: C_6  and  N_7
REMARK    8  A    between atoms: N_7  and  C_8
REMARK    9  A    between atoms: C_11  and  C_12
REMARK   10  A    between atoms: C_20  and  C_21
REMARK                            x       y       z     vdW  Elec       q    Type
REMARK                         _______ _______ _______ _____ _____    ______ ____
ROOT
ATOM      1  C   UNL     1      33.599 -39.632 -28.181  0.00  0.00    +0.011 C 
ENDROOT
BRANCH   1   2
ATOM      2  N   UNL     1      34.990 -40.025 -27.942  0.00  0.00    -0.328 N 
ATOM      3  H   UNL     1      35.247 -40.829 -27.435  0.00  0.00    +0.000 HD
BRANCH   2   4
ATOM      4  C   UNL     1      35.919 -39.141 -28.510  0.00  0.00    +0.141 A 
ATOM      5  C   UNL     1      36.570 -38.175 -27.763  0.00  0.00    -0.018 A 
ATOM      6  C   UNL     1      37.482 -37.322 -28.384  0.00  0.00    -0.031 A 
ATOM      7  C   UNL     1      37.725 -37.457 -29.745  0.00  0.00    +0.093 A 
ATOM      8  N   UNL     1      37.090 -38.425 -30.441  0.00  0.00    -0.147 NA
ATOM      9  N   UNL     1      36.191 -39.271 -29.820  0.00  0.00    -0.134 NA
BRANCH   7  10
ATOM     10  C   UNL     1      38.664 -36.606 -30.502  0.00  0.00    +0.002 A 
ATOM     11  C   UNL     1      38.236 -35.479 -31.228  0.00  0.00    -0.053 A 
ATOM     12  C   UNL     1      39.141 -34.683 -31.940  0.00  0.00    -0.061 A 
ATOM     13  C   UNL     1      40.496 -34.999 -31.945  0.00  0.00    -0.062 A 
ATOM     14  C   UNL     1      40.946 -36.112 -31.244  0.00  0.00    -0.061 A 
ATOM     15  C   UNL     1      40.040 -36.906 -30.534  0.00  0.00    -0.053 A 
ENDBRANCH   7  10
ENDBRANCH   2   4
ENDBRANCH   1   2
BRANCH   1  16
ATOM     16  C   UNL     1      32.990 -39.114 -26.878  0.00  0.00    -0.036 C 
BRANCH  16  17
ATOM     17  C   UNL     1      31.737 -38.252 -27.071  0.00  0.00    -0.039 C 
BRANCH  17  18
ATOM     18  C   UNL     1      31.821 -37.209 -28.197  0.00  0.00    -0.001 C 
BRANCH  18  20
ATOM     19  C   UNL     1      32.294 -35.771 -26.336  0.00  0.00    -0.012 C 
ATOM     20  N   UNL     1      32.358 -35.893 -27.801  0.00  0.00    -0.301 N 
ATOM     21  H   UNL     1      31.791 -35.165 -28.237  0.00  0.00    +0.000 HD
BRANCH  20  22
ATOM     22  C   UNL     1      33.748 -35.710 -28.270  0.00  0.00    +0.024 C 
BRANCH  22  23
ATOM     23  C   UNL     1      33.964 -34.486 -29.144  0.00  0.00    -0.033 A 
ATOM     24  C   UNL     1      35.120 -34.341 -29.927  0.00  0.00    -0.057 A 
ATOM     25  C   UNL     1      35.320 -33.194 -30.699  0.00  0.00    -0.061 A 
ATOM     26  C   UNL     1      34.376 -32.171 -30.685  0.00  0.00    -0.062 A 
ATOM     27  C   UNL     1      33.230 -32.294 -29.901  0.00  0.00    -0.061 A 
ATOM     28  C   UNL     1      33.027 -33.443 -29.132  0.00  0.00    -0.057 A 
ENDBRANCH  22  23
ENDBRANCH  20  22
ENDBRANCH  18  20
ENDBRANCH  17  18
ENDBRANCH  16  17
ENDBRANCH   1  16
TORSDOF 9
ENDMDL
MODEL 11
REMARK VINA RESULT:    -7.055      5.204      8.086
REMARK INTER + INTRA:         -11.388
REMARK INTER:                 -10.011
REMARK INTRA:                  -1.377
REMARK UNBOUND:                -0.621
REMARK  Name = cpd269.pdb
REMARK  10 active torsions:
REMARK  status: ('A' for Active; 'I' for Inactive)
REMARK    1  A    between atoms: C_1  and  N_2
REMARK    2  A    between atoms: N_2  and  C_3
REMARK    3  A    between atoms: N_2  and  C_20
REMARK    4  A    between atoms: C_3  and  C_4
REMARK    5  A    between atoms: C_4  and  C_5
REMARK    6  A    between atoms: C_5  and  C_6
REMARK    7  A    between atoms: C_6  and  N_7
REMARK    8  A    between atoms: N_7  and  C_8
REMARK    9  A    between atoms: C_11  and  C_12
REMARK   10  A    between atoms: C_20  and  C_21
REMARK                            x       y       z     vdW  Elec       q    Type
REMARK                         _______ _______ _______ _____ _____    ______ ____
ROOT
ATOM      1  C   UNL     1      34.382 -36.139 -28.075  0.00  0.00    +0.011 C 
ENDROOT
BRANCH   1   2
ATOM      2  N   UNL     1      34.737 -37.104 -29.118  0.00  0.00    -0.328 N 
ATOM      3  H   UNL     1      34.083 -37.699 -29.550  0.00  0.00    +0.000 HD
BRANCH   2   4
ATOM      4  C   UNL     1      36.102 -37.095 -29.437  0.00  0.00    +0.141 A 
ATOM      5  C   UNL     1      37.061 -37.627 -28.592  0.00  0.00    -0.018 A 
ATOM      6  C   UNL     1      38.405 -37.587 -28.962  0.00  0.00    -0.031 A 
ATOM      7  C   UNL     1      38.761 -37.016 -30.177  0.00  0.00    +0.093 A 
ATOM      8  N   UNL     1      37.799 -36.526 -30.989  0.00  0.00    -0.147 NA
ATOM      9  N   UNL     1      36.468 -36.572 -30.620  0.00  0.00    -0.134 NA
BRANCH   7  10
ATOM     10  C   UNL     1      40.151 -36.916 -30.665  0.00  0.00    +0.002 A 
ATOM     11  C   UNL     1      40.567 -35.896 -31.541  0.00  0.00    -0.053 A 
ATOM     12  C   UNL     1      41.889 -35.816 -31.992  0.00  0.00    -0.061 A 
ATOM     13  C   UNL     1      42.826 -36.758 -31.580  0.00  0.00    -0.062 A 
ATOM     14  C   UNL     1      42.442 -37.781 -30.721  0.00  0.00    -0.061 A 
ATOM     15  C   UNL     1      41.120 -37.860 -30.273  0.00  0.00    -0.053 A 
ENDBRANCH   7  10
ENDBRANCH   2   4
ENDBRANCH   1   2
BRANCH   1  16
ATOM     16  C   UNL     1      33.294 -35.203 -28.601  0.00  0.00    -0.036 C 
BRANCH  16  17
ATOM     17  C   UNL     1      32.936 -35.425 -30.075  0.00  0.00    -0.039 C 
BRANCH  17  18
ATOM     18  C   UNL     1      33.403 -34.323 -31.040  0.00  0.00    -0.001 C 
BRANCH  18  20
ATOM     19  C   UNL     1      35.470 -33.115 -30.899  0.00  0.00    -0.012 C 
ATOM     20  N   UNL     1      34.084 -33.177 -30.409  0.00  0.00    -0.301 N 
ATOM     21  H   UNL     1      34.076 -33.309 -29.398  0.00  0.00    +0.000 HD
BRANCH  20  22
ATOM     22  C   UNL     1      33.384 -31.906 -30.693  0.00  0.00    +0.024 C 
BRANCH  22  23
ATOM     23  C   UNL     1      31.924 -31.880 -30.273  0.00  0.00    -0.033 A 
ATOM     24  C   UNL     1      30.894 -31.717 -31.212  0.00  0.00    -0.057 A 
ATOM     25  C   UNL     1      29.559 -31.661 -30.805  0.00  0.00    -0.061 A 
ATOM     26  C   UNL     1      29.238 -31.751 -29.454  0.00  0.00    -0.062 A 
ATOM     27  C   UNL     1      30.250 -31.898 -28.507  0.00  0.00    -0.061 A 
ATOM     28  C   UNL     1      31.586 -31.957 -28.914  0.00  0.00    -0.057 A 
ENDBRANCH  22  23
ENDBRANCH  20  22
ENDBRANCH  18  20
ENDBRANCH  17  18
ENDBRANCH  16  17
ENDBRANCH   1  16
TORSDOF 9
ENDMDL
MODEL 12
REMARK VINA RESULT:    -7.040      5.504      8.839
REMARK INTER + INTRA:         -11.366
REMARK INTER:                 -10.000
REMARK INTRA:                  -1.366
REMARK UNBOUND:                -0.621
REMARK  Name = cpd269.pdb
REMARK  10 active torsions:
REMARK  status: ('A' for Active; 'I' for Inactive)
REMARK    1  A    between atoms: C_1  and  N_2
REMARK    2  A    between atoms: N_2  and  C_3
REMARK    3  A    between atoms: N_2  and  C_20
REMARK    4  A    between atoms: C_3  and  C_4
REMARK    5  A    between atoms: C_4  and  C_5
REMARK    6  A    between atoms: C_5  and  C_6
REMARK    7  A    between atoms: C_6  and  N_7
REMARK    8  A    between atoms: N_7  and  C_8
REMARK    9  A    between atoms: C_11  and  C_12
REMARK   10  A    between atoms: C_20  and  C_21
REMARK                            x       y       z     vdW  Elec       q    Type
REMARK                         _______ _______ _______ _____ _____    ______ ____
ROOT
ATOM      1  C   UNL     1      33.755 -36.667 -28.817  0.00  0.00    +0.011 C 
ENDROOT
BRANCH   1   2
ATOM      2  N   UNL     1      34.836 -36.819 -27.841  0.00  0.00    -0.328 N 
ATOM      3  H   UNL     1      34.690 -36.826 -26.867  0.00  0.00    +0.000 HD
BRANCH   2   4
ATOM      4  C   UNL     1      36.100 -36.954 -28.433  0.00  0.00    +0.141 A 
ATOM      5  C   UNL     1      37.086 -37.760 -27.891  0.00  0.00    -0.018 A 
ATOM      6  C   UNL     1      38.325 -37.852 -28.523  0.00  0.00    -0.031 A 
ATOM      7  C   UNL     1      38.551 -37.135 -29.690  0.00  0.00    +0.093 A 
ATOM      8  N   UNL     1      37.560 -36.375 -30.206  0.00  0.00    -0.147 NA
ATOM      9  N   UNL     1      36.332 -36.291 -29.579  0.00  0.00    -0.134 NA
BRANCH   7  10
ATOM     10  C   UNL     1      39.824 -37.155 -30.438  0.00  0.00    +0.002 A 
ATOM     11  C   UNL     1      40.957 -37.848 -29.970  0.00  0.00    -0.053 A 
ATOM     12  C   UNL     1      42.155 -37.858 -30.692  0.00  0.00    -0.061 A 
ATOM     13  C   UNL     1      42.250 -37.170 -31.898  0.00  0.00    -0.062 A 
ATOM     14  C   UNL     1      41.150 -36.470 -32.380  0.00  0.00    -0.061 A 
ATOM     15  C   UNL     1      39.954 -36.462 -31.656  0.00  0.00    -0.053 A 
ENDBRANCH   7  10
ENDBRANCH   2   4
ENDBRANCH   1   2
BRANCH   1  16
ATOM     16  C   UNL     1      33.391 -38.038 -29.386  0.00  0.00    -0.036 C 
BRANCH  16  17
ATOM     17  C   UNL     1      32.238 -38.735 -28.653  0.00  0.00    -0.039 C 
BRANCH  17  18
ATOM     18  C   UNL     1      32.647 -39.904 -27.742  0.00  0.00    -0.001 C 
BRANCH  18  20
ATOM     19  C   UNL     1      30.831 -40.928 -28.926  0.00  0.00    -0.012 C 
ATOM     20  N   UNL     1      31.928 -41.170 -27.976  0.00  0.00    -0.301 N 
ATOM     21  H   UNL     1      31.553 -41.501 -27.087  0.00  0.00    +0.000 HD
BRANCH  20  22
ATOM     22  C   UNL     1      32.831 -42.220 -28.493  0.00  0.00    +0.024 C 
BRANCH  22  23
ATOM     23  C   UNL     1      33.959 -41.709 -29.371  0.00  0.00    -0.033 A 
ATOM     24  C   UNL     1      33.756 -41.416 -30.729  0.00  0.00    -0.057 A 
ATOM     25  C   UNL     1      34.812 -40.979 -31.531  0.00  0.00    -0.061 A 
ATOM     26  C   UNL     1      36.088 -40.844 -30.991  0.00  0.00    -0.062 A 
ATOM     27  C   UNL     1      36.310 -41.145 -29.648  0.00  0.00    -0.061 A 
ATOM     28  C   UNL     1      35.253 -41.579 -28.844  0.00  0.00    -0.057 A 
ENDBRANCH  22  23
ENDBRANCH  20  22
ENDBRANCH  18  20
ENDBRANCH  17  18
ENDBRANCH  16  17
ENDBRANCH   1  16
TORSDOF 9
ENDMDL
MODEL 13
REMARK VINA RESULT:    -6.937      4.993      9.185
REMARK INTER + INTRA:         -11.208
REMARK INTER:                 -10.491
REMARK INTRA:                  -0.717
REMARK UNBOUND:                -0.621
REMARK  Name = cpd269.pdb
REMARK  10 active torsions:
REMARK  status: ('A' for Active; 'I' for Inactive)
REMARK    1  A    between atoms: C_1  and  N_2
REMARK    2  A    between atoms: N_2  and  C_3
REMARK    3  A    between atoms: N_2  and  C_20
REMARK    4  A    between atoms: C_3  and  C_4
REMARK    5  A    between atoms: C_4  and  C_5
REMARK    6  A    between atoms: C_5  and  C_6
REMARK    7  A    between atoms: C_6  and  N_7
REMARK    8  A    between atoms: N_7  and  C_8
REMARK    9  A    between atoms: C_11  and  C_12
REMARK   10  A    between atoms: C_20  and  C_21
REMARK                            x       y       z     vdW  Elec       q    Type
REMARK                         _______ _______ _______ _____ _____    ______ ____
ROOT
ATOM      1  C   UNL     1      35.029 -33.441 -30.942  0.00  0.00    +0.011 C 
ENDROOT
BRANCH   1   2
ATOM      2  N   UNL     1      35.100 -34.883 -30.691  0.00  0.00    -0.328 N 
ATOM      3  H   UNL     1      34.316 -35.433 -30.464  0.00  0.00    +0.000 HD
BRANCH   2   4
ATOM      4  C   UNL     1      36.398 -35.400 -30.808  0.00  0.00    +0.141 A 
ATOM      5  C   UNL     1      37.287 -34.951 -31.770  0.00  0.00    -0.018 A 
ATOM      6  C   UNL     1      38.564 -35.506 -31.840  0.00  0.00    -0.031 A 
ATOM      7  C   UNL     1      38.927 -36.500 -30.940  0.00  0.00    +0.093 A 
ATOM      8  N   UNL     1      38.044 -36.900 -29.999  0.00  0.00    -0.147 NA
ATOM      9  N   UNL     1      36.781 -36.344 -29.931  0.00  0.00    -0.134 NA
BRANCH   7  10
ATOM     10  C   UNL     1      40.249 -37.158 -30.928  0.00  0.00    +0.002 A 
ATOM     11  C   UNL     1      40.712 -37.888 -29.816  0.00  0.00    -0.053 A 
ATOM     12  C   UNL     1      41.967 -38.507 -29.823  0.00  0.00    -0.061 A 
ATOM     13  C   UNL     1      42.790 -38.407 -30.940  0.00  0.00    -0.062 A 
ATOM     14  C   UNL     1      42.362 -37.685 -32.048  0.00  0.00    -0.061 A 
ATOM     15  C   UNL     1      41.108 -37.067 -32.039  0.00  0.00    -0.053 A 
ENDBRANCH   7  10
ENDBRANCH   2   4
ENDBRANCH   1   2
BRANCH   1  16
ATOM     16  C   UNL     1      34.483 -32.739 -29.700  0.00  0.00    -0.036 C 
BRANCH  16  17
ATOM     17  C   UNL     1      33.077 -32.152 -29.878  0.00  0.00    -0.039 C 
BRANCH  17  18
ATOM     18  C   UNL     1      31.968 -32.841 -29.066  0.00  0.00    -0.001 C 
BRANCH  18  20
ATOM     19  C   UNL     1      29.724 -33.681 -28.971  0.00  0.00    -0.012 C 
ATOM     20  N   UNL     1      30.603 -32.683 -29.600  0.00  0.00    -0.301 N 
ATOM     21  H   UNL     1      30.629 -32.828 -30.610  0.00  0.00    +0.000 HD
BRANCH  20  22
ATOM     22  C   UNL     1      30.081 -31.320 -29.364  0.00  0.00    +0.024 C 
BRANCH  22  23
ATOM     23  C   UNL     1      29.421 -30.677 -30.571  0.00  0.00    -0.033 A 
ATOM     24  C   UNL     1      29.018 -31.439 -31.679  0.00  0.00    -0.057 A 
ATOM     25  C   UNL     1      28.444 -30.828 -32.795  0.00  0.00    -0.061 A 
ATOM     26  C   UNL     1      28.279 -29.446 -32.826  0.00  0.00    -0.062 A 
ATOM     27  C   UNL     1      28.687 -28.673 -31.741  0.00  0.00    -0.061 A 
ATOM     28  C   UNL     1      29.259 -29.285 -30.621  0.00  0.00    -0.057 A 
ENDBRANCH  22  23
ENDBRANCH  20  22
ENDBRANCH  18  20
ENDBRANCH  17  18
ENDBRANCH  16  17
ENDBRANCH   1  16
TORSDOF 9
ENDMDL
MODEL 14
REMARK VINA RESULT:    -6.667      6.228      9.646
REMARK INTER + INTRA:         -10.795
REMARK INTER:                  -8.909
REMARK INTRA:                  -1.887
REMARK UNBOUND:                -0.621
REMARK  Name = cpd269.pdb
REMARK  10 active torsions:
REMARK  status: ('A' for Active; 'I' for Inactive)
REMARK    1  A    between atoms: C_1  and  N_2
REMARK    2  A    between atoms: N_2  and  C_3
REMARK    3  A    between atoms: N_2  and  C_20
REMARK    4  A    between atoms: C_3  and  C_4
REMARK    5  A    between atoms: C_4  and  C_5
REMARK    6  A    between atoms: C_5  and  C_6
REMARK    7  A    between atoms: C_6  and  N_7
REMARK    8  A    between atoms: N_7  and  C_8
REMARK    9  A    between atoms: C_11  and  C_12
REMARK   10  A    between atoms: C_20  and  C_21
REMARK                            x       y       z     vdW  Elec       q    Type
REMARK                         _______ _______ _______ _____ _____    ______ ____
ROOT
ATOM      1  C   UNL     1      33.472 -35.954 -27.501  0.00  0.00    +0.011 C 
ENDROOT
BRANCH   1   2
ATOM      2  N   UNL     1      33.557 -35.991 -28.963  0.00  0.00    -0.328 N 
ATOM      3  H   UNL     1      32.776 -35.898 -29.554  0.00  0.00    +0.000 HD
BRANCH   2   4
ATOM      4  C   UNL     1      34.865 -36.170 -29.434  0.00  0.00    +0.141 A 
ATOM      5  C   UNL     1      35.706 -37.146 -28.926  0.00  0.00    -0.018 A 
ATOM      6  C   UNL     1      36.998 -37.275 -29.433  0.00  0.00    -0.031 A 
ATOM      7  C   UNL     1      37.422 -36.425 -30.445  0.00  0.00    +0.093 A 
ATOM      8  N   UNL     1      36.570 -35.498 -30.936  0.00  0.00    -0.147 NA
ATOM      9  N   UNL     1      35.289 -35.376 -30.433  0.00  0.00    -0.134 NA
BRANCH   7  10
ATOM     10  C   UNL     1      38.768 -36.470 -31.051  0.00  0.00    +0.002 A 
ATOM     11  C   UNL     1      39.067 -35.820 -32.263  0.00  0.00    -0.053 A 
ATOM     12  C   UNL     1      40.349 -35.873 -32.822  0.00  0.00    -0.061 A 
ATOM     13  C   UNL     1      41.361 -36.582 -32.183  0.00  0.00    -0.062 A 
ATOM     14  C   UNL     1      41.092 -37.241 -30.989  0.00  0.00    -0.061 A 
ATOM     15  C   UNL     1      39.810 -37.187 -30.433  0.00  0.00    -0.053 A 
ENDBRANCH   7  10
ENDBRANCH   2   4
ENDBRANCH   1   2
BRANCH   1  16
ATOM     16  C   UNL     1      32.390 -36.927 -27.034  0.00  0.00    -0.036 C 
BRANCH  16  17
ATOM     17  C   UNL     1      32.920 -38.109 -26.214  0.00  0.00    -0.039 C 
BRANCH  17  18
ATOM     18  C   UNL     1      31.997 -39.336 -26.153  0.00  0.00    -0.001 C 
BRANCH  18  20
ATOM     19  C   UNL     1      31.707 -41.704 -26.402  0.00  0.00    -0.012 C 
ATOM     20  N   UNL     1      32.504 -40.544 -26.830  0.00  0.00    -0.301 N 
ATOM     21  H   UNL     1      33.482 -40.677 -26.571  0.00  0.00    +0.000 HD
BRANCH  20  22
ATOM     22  C   UNL     1      32.454 -40.403 -28.301  0.00  0.00    +0.024 C 
BRANCH  22  23
ATOM     23  C   UNL     1      33.778 -40.643 -29.006  0.00  0.00    -0.033 A 
ATOM     24  C   UNL     1      34.932 -41.006 -28.293  0.00  0.00    -0.057 A 
ATOM     25  C   UNL     1      36.150 -41.189 -28.951  0.00  0.00    -0.061 A 
ATOM     26  C   UNL     1      36.234 -40.997 -30.328  0.00  0.00    -0.062 A 
ATOM     27  C   UNL     1      35.101 -40.622 -31.048  0.00  0.00    -0.061 A 
ATOM     28  C   UNL     1      33.881 -40.441 -30.390  0.00  0.00    -0.057 A 
ENDBRANCH  22  23
ENDBRANCH  20  22
ENDBRANCH  18  20
ENDBRANCH  17  18
ENDBRANCH  16  17
ENDBRANCH   1  16
TORSDOF 9
ENDMDL
MODEL 15
REMARK VINA RESULT:    -6.654      5.978      9.479
REMARK INTER + INTRA:         -10.776
REMARK INTER:                  -8.710
REMARK INTRA:                  -2.065
REMARK UNBOUND:                -0.621
REMARK  Name = cpd269.pdb
REMARK  10 active torsions:
REMARK  status: ('A' for Active; 'I' for Inactive)
REMARK    1  A    between atoms: C_1  and  N_2
REMARK    2  A    between atoms: N_2  and  C_3
REMARK    3  A    between atoms: N_2  and  C_20
REMARK    4  A    between atoms: C_3  and  C_4
REMARK    5  A    between atoms: C_4  and  C_5
REMARK    6  A    between atoms: C_5  and  C_6
REMARK    7  A    between atoms: C_6  and  N_7
REMARK    8  A    between atoms: N_7  and  C_8
REMARK    9  A    between atoms: C_11  and  C_12
REMARK   10  A    between atoms: C_20  and  C_21
REMARK                            x       y       z     vdW  Elec       q    Type
REMARK                         _______ _______ _______ _____ _____    ______ ____
ROOT
ATOM      1  C   UNL     1      32.275 -36.274 -31.215  0.00  0.00    +0.011 C 
ENDROOT
BRANCH   1   2
ATOM      2  N   UNL     1      33.251 -35.236 -30.876  0.00  0.00    -0.328 N 
ATOM      3  H   UNL     1      33.031 -34.277 -30.838  0.00  0.00    +0.000 HD
BRANCH   2   4
ATOM      4  C   UNL     1      34.530 -35.745 -30.610  0.00  0.00    +0.141 A 
ATOM      5  C   UNL     1      34.727 -36.875 -29.833  0.00  0.00    -0.018 A 
ATOM      6  C   UNL     1      36.023 -37.333 -29.600  0.00  0.00    -0.031 A 
ATOM      7  C   UNL     1      37.098 -36.651 -30.154  0.00  0.00    +0.093 A 
ATOM      8  N   UNL     1      36.871 -35.566 -30.926  0.00  0.00    -0.147 NA
ATOM      9  N   UNL     1      35.584 -35.118 -31.158  0.00  0.00    -0.134 NA
BRANCH   7  10
ATOM     10  C   UNL     1      38.509 -37.046 -29.969  0.00  0.00    +0.002 A 
ATOM     11  C   UNL     1      38.929 -37.841 -28.885  0.00  0.00    -0.053 A 
ATOM     12  C   UNL     1      40.270 -38.206 -28.726  0.00  0.00    -0.061 A 
ATOM     13  C   UNL     1      41.224 -37.781 -29.645  0.00  0.00    -0.062 A 
ATOM     14  C   UNL     1      40.839 -36.988 -30.720  0.00  0.00    -0.061 A 
ATOM     15  C   UNL     1      39.498 -36.624 -30.877  0.00  0.00    -0.053 A 
ENDBRANCH   7  10
ENDBRANCH   2   4
ENDBRANCH   1   2
BRANCH   1  16
ATOM     16  C   UNL     1      32.395 -36.614 -32.701  0.00  0.00    -0.036 C 
BRANCH  16  17
ATOM     17  C   UNL     1      32.816 -38.061 -32.981  0.00  0.00    -0.039 C 
BRANCH  17  18
ATOM     18  C   UNL     1      31.736 -39.124 -32.720  0.00  0.00    -0.001 C 
BRANCH  18  20
ATOM     19  C   UNL     1      31.507 -41.511 -32.742  0.00  0.00    -0.012 C 
ATOM     20  N   UNL     1      32.219 -40.383 -32.122  0.00  0.00    -0.301 N 
ATOM     21  H   UNL     1      32.033 -40.361 -31.119  0.00  0.00    +0.000 HD
BRANCH  20  22
ATOM     22  C   UNL     1      33.679 -40.541 -32.296  0.00  0.00    +0.024 C 
BRANCH  22  23
ATOM     23  C   UNL     1      34.439 -40.847 -31.016  0.00  0.00    -0.033 A 
ATOM     24  C   UNL     1      33.769 -41.100 -29.809  0.00  0.00    -0.057 A 
ATOM     25  C   UNL     1      34.483 -41.345 -28.634  0.00  0.00    -0.061 A 
ATOM     26  C   UNL     1      35.875 -41.325 -28.647  0.00  0.00    -0.062 A 
ATOM     27  C   UNL     1      36.555 -41.060 -29.835  0.00  0.00    -0.061 A 
ATOM     28  C   UNL     1      35.842 -40.818 -31.012  0.00  0.00    -0.057 A 
ENDBRANCH  22  23
ENDBRANCH  20  22
ENDBRANCH  18  20
ENDBRANCH  17  18
ENDBRANCH  16  17
ENDBRANCH   1  16
TORSDOF 9
ENDMDL
MODEL 16
REMARK VINA RESULT:    -6.579     16.525     19.767
REMARK INTER + INTRA:         -10.662
REMARK INTER:                  -8.859
REMARK INTRA:                  -1.803
REMARK UNBOUND:                -0.621
REMARK  Name = cpd269.pdb
REMARK  10 active torsions:
REMARK  status: ('A' for Active; 'I' for Inactive)
REMARK    1  A    between atoms: C_1  and  N_2
REMARK    2  A    between atoms: N_2  and  C_3
REMARK    3  A    between atoms: N_2  and  C_20
REMARK    4  A    between atoms: C_3  and  C_4
REMARK    5  A    between atoms: C_4  and  C_5
REMARK    6  A    between atoms: C_5  and  C_6
REMARK    7  A    between atoms: C_6  and  N_7
REMARK    8  A    between atoms: N_7  and  C_8
REMARK    9  A    between atoms: C_11  and  C_12
REMARK   10  A    between atoms: C_20  and  C_21
REMARK                            x       y       z     vdW  Elec       q    Type
REMARK                         _______ _______ _______ _____ _____    ______ ____
ROOT
ATOM      1  C   UNL     1      43.188 -21.817 -40.974  0.00  0.00    +0.011 C 
ENDROOT
BRANCH   1   2
ATOM      2  N   UNL     1      41.724 -21.789 -40.944  0.00  0.00    -0.328 N 
ATOM      3  H   UNL     1      41.165 -21.796 -41.754  0.00  0.00    +0.000 HD
BRANCH   2   4
ATOM      4  C   UNL     1      41.199 -21.750 -39.644  0.00  0.00    +0.141 A 
ATOM      5  C   UNL     1      40.664 -20.596 -39.098  0.00  0.00    -0.018 A 
ATOM      6  C   UNL     1      40.159 -20.618 -37.799  0.00  0.00    -0.031 A 
ATOM      7  C   UNL     1      40.197 -21.800 -37.072  0.00  0.00    +0.093 A 
ATOM      8  N   UNL     1      40.704 -22.916 -37.642  0.00  0.00    -0.147 NA
ATOM      9  N   UNL     1      41.199 -22.890 -38.931  0.00  0.00    -0.134 NA
BRANCH   7  10
ATOM     10  C   UNL     1      39.695 -21.935 -35.690  0.00  0.00    +0.002 A 
ATOM     11  C   UNL     1      38.927 -23.039 -35.275  0.00  0.00    -0.053 A 
ATOM     12  C   UNL     1      38.461 -23.151 -33.960  0.00  0.00    -0.061 A 
ATOM     13  C   UNL     1      38.750 -22.157 -33.029  0.00  0.00    -0.062 A 
ATOM     14  C   UNL     1      39.500 -21.051 -33.414  0.00  0.00    -0.061 A 
ATOM     15  C   UNL     1      39.963 -20.942 -34.728  0.00  0.00    -0.053 A 
ENDBRANCH   7  10
ENDBRANCH   2   4
ENDBRANCH   1   2
BRANCH   1  16
ATOM     16  C   UNL     1      43.717 -20.393 -41.141  0.00  0.00    -0.036 C 
BRANCH  16  17
ATOM     17  C   UNL     1      45.064 -20.306 -41.867  0.00  0.00    -0.039 C 
BRANCH  17  18
ATOM     18  C   UNL     1      46.287 -20.076 -40.964  0.00  0.00    -0.001 C 
BRANCH  18  20
ATOM     19  C   UNL     1      47.262 -22.023 -39.959  0.00  0.00    -0.012 C 
ATOM     20  N   UNL     1      46.335 -20.901 -39.743  0.00  0.00    -0.301 N 
ATOM     21  H   UNL     1      45.397 -21.255 -39.551  0.00  0.00    +0.000 HD
BRANCH  20  22
ATOM     22  C   UNL     1      46.755 -20.108 -38.568  0.00  0.00    +0.024 C 
BRANCH  22  23
ATOM     23  C   UNL     1      45.854 -20.250 -37.353  0.00  0.00    -0.033 A 
ATOM     24  C   UNL     1      44.462 -20.381 -37.485  0.00  0.00    -0.057 A 
ATOM     25  C   UNL     1      43.644 -20.476 -36.357  0.00  0.00    -0.061 A 
ATOM     26  C   UNL     1      44.204 -20.425 -35.084  0.00  0.00    -0.062 A 
ATOM     27  C   UNL     1      45.583 -20.280 -34.936  0.00  0.00    -0.061 A 
ATOM     28  C   UNL     1      46.403 -20.189 -36.064  0.00  0.00    -0.057 A 
ENDBRANCH  22  23
ENDBRANCH  20  22
ENDBRANCH  18  20
ENDBRANCH  17  18
ENDBRANCH  16  17
ENDBRANCH   1  16
TORSDOF 9
ENDMDL
MODEL 17
REMARK VINA RESULT:    -6.520     20.193     22.516
REMARK INTER + INTRA:         -10.571
REMARK INTER:                  -7.729
REMARK INTRA:                  -2.842
REMARK UNBOUND:                -0.621
REMARK  Name = cpd269.pdb
REMARK  10 active torsions:
REMARK  status: ('A' for Active; 'I' for Inactive)
REMARK    1  A    between atoms: C_1  and  N_2
REMARK    2  A    between atoms: N_2  and  C_3
REMARK    3  A    between atoms: N_2  and  C_20
REMARK    4  A    between atoms: C_3  and  C_4
REMARK    5  A    between atoms: C_4  and  C_5
REMARK    6  A    between atoms: C_5  and  C_6
REMARK    7  A    between atoms: C_6  and  N_7
REMARK    8  A    between atoms: N_7  and  C_8
REMARK    9  A    between atoms: C_11  and  C_12
REMARK   10  A    between atoms: C_20  and  C_21
REMARK                            x       y       z     vdW  Elec       q    Type
REMARK                         _______ _______ _______ _____ _____    ______ ____
ROOT
ATOM      1  C   UNL     1      43.307 -15.723 -41.215  0.00  0.00    +0.011 C 
ENDROOT
BRANCH   1   2
ATOM      2  N   UNL     1      43.096 -16.708 -40.152  0.00  0.00    -0.328 N 
ATOM      3  H   UNL     1      42.520 -16.547 -39.371  0.00  0.00    +0.000 HD
BRANCH   2   4
ATOM      4  C   UNL     1      43.797 -17.904 -40.361  0.00  0.00    +0.141 A 
ATOM      5  C   UNL     1      43.421 -19.094 -39.762  0.00  0.00    -0.018 A 
ATOM      6  C   UNL     1      44.159 -20.252 -40.005  0.00  0.00    -0.031 A 
ATOM      7  C   UNL     1      45.261 -20.194 -40.848  0.00  0.00    +0.093 A 
ATOM      8  N   UNL     1      45.588 -19.022 -41.436  0.00  0.00    -0.147 NA
ATOM      9  N   UNL     1      44.850 -17.878 -41.196  0.00  0.00    -0.134 NA
BRANCH   7  10
ATOM     10  C   UNL     1      46.114 -21.355 -41.171  0.00  0.00    +0.002 A 
ATOM     11  C   UNL     1      45.941 -22.109 -42.347  0.00  0.00    -0.053 A 
ATOM     12  C   UNL     1      46.760 -23.206 -42.637  0.00  0.00    -0.061 A 
ATOM     13  C   UNL     1      47.770 -23.577 -41.754  0.00  0.00    -0.062 A 
ATOM     14  C   UNL     1      47.958 -22.855 -40.581  0.00  0.00    -0.061 A 
ATOM     15  C   UNL     1      47.138 -21.760 -40.293  0.00  0.00    -0.053 A 
ENDBRANCH   7  10
ENDBRANCH   2   4
ENDBRANCH   1   2
BRANCH   1  16
ATOM     16  C   UNL     1      43.385 -14.326 -40.601  0.00  0.00    -0.036 C 
BRANCH  16  17
ATOM     17  C   UNL     1      44.748 -13.984 -39.989  0.00  0.00    -0.039 C 
BRANCH  17  18
ATOM     18  C   UNL     1      45.967 -14.550 -40.737  0.00  0.00    -0.001 C 
BRANCH  18  20
ATOM     19  C   UNL     1      48.234 -14.996 -40.094  0.00  0.00    -0.012 C 
ATOM     20  N   UNL     1      46.838 -15.438 -39.945  0.00  0.00    -0.301 N 
ATOM     21  H   UNL     1      46.735 -16.392 -40.293  0.00  0.00    +0.000 HD
BRANCH  20  22
ATOM     22  C   UNL     1      46.453 -15.445 -38.517  0.00  0.00    +0.024 C 
BRANCH  22  23
ATOM     23  C   UNL     1      46.220 -16.827 -37.931  0.00  0.00    -0.033 A 
ATOM     24  C   UNL     1      45.222 -17.058 -36.972  0.00  0.00    -0.057 A 
ATOM     25  C   UNL     1      45.044 -18.327 -36.418  0.00  0.00    -0.061 A 
ATOM     26  C   UNL     1      45.870 -19.378 -36.804  0.00  0.00    -0.062 A 
ATOM     27  C   UNL     1      46.876 -19.162 -37.745  0.00  0.00    -0.061 A 
ATOM     28  C   UNL     1      47.053 -17.893 -38.302  0.00  0.00    -0.057 A 
ENDBRANCH  22  23
ENDBRANCH  20  22
ENDBRANCH  18  20
ENDBRANCH  17  18
ENDBRANCH  16  17
ENDBRANCH   1  16
TORSDOF 9
ENDMDL
MODEL 18
REMARK VINA RESULT:    -6.519     28.428     31.882
REMARK INTER + INTRA:         -10.570
REMARK INTER:                  -9.653
REMARK INTRA:                  -0.917
REMARK UNBOUND:                -0.621
REMARK  Name = cpd269.pdb
REMARK  10 active torsions:
REMARK  status: ('A' for Active; 'I' for Inactive)
REMARK    1  A    between atoms: C_1  and  N_2
REMARK    2  A    between atoms: N_2  and  C_3
REMARK    3  A    between atoms: N_2  and  C_20
REMARK    4  A    between atoms: C_3  and  C_4
REMARK    5  A    between atoms: C_4  and  C_5
REMARK    6  A    between atoms: C_5  and  C_6
REMARK    7  A    between atoms: C_6  and  N_7
REMARK    8  A    between atoms: N_7  and  C_8
REMARK    9  A    between atoms: C_11  and  C_12
REMARK   10  A    between atoms: C_20  and  C_21
REMARK                            x       y       z     vdW  Elec       q    Type
REMARK                         _______ _______ _______ _____ _____    ______ ____
ROOT
ATOM      1  C   UNL     1      62.658 -19.080 -10.536  0.00  0.00    +0.011 C 
ENDROOT
BRANCH   1   2
ATOM      2  N   UNL     1      63.078 -19.302  -9.150  0.00  0.00    -0.328 N 
ATOM      3  H   UNL     1      63.281 -18.571  -8.522  0.00  0.00    +0.000 HD
BRANCH   2   4
ATOM      4  C   UNL     1      63.162 -20.659  -8.809  0.00  0.00    +0.141 A 
ATOM      5  C   UNL     1      63.315 -21.652  -9.763  0.00  0.00    -0.018 A 
ATOM      6  C   UNL     1      63.390 -22.985  -9.363  0.00  0.00    -0.031 A 
ATOM      7  C   UNL     1      63.313 -23.299  -8.013  0.00  0.00    +0.093 A 
ATOM      8  N   UNL     1      63.186 -22.305  -7.105  0.00  0.00    -0.147 NA
ATOM      9  N   UNL     1      63.118 -20.984  -7.506  0.00  0.00    -0.134 NA
BRANCH   7  10
ATOM     10  C   UNL     1      63.376 -24.675  -7.481  0.00  0.00    +0.002 A 
ATOM     11  C   UNL     1      64.549 -25.205  -6.911  0.00  0.00    -0.053 A 
ATOM     12  C   UNL     1      64.590 -26.511  -6.411  0.00  0.00    -0.061 A 
ATOM     13  C   UNL     1      63.458 -27.319  -6.471  0.00  0.00    -0.062 A 
ATOM     14  C   UNL     1      62.289 -26.824  -7.035  0.00  0.00    -0.061 A 
ATOM     15  C   UNL     1      62.250 -25.519  -7.536  0.00  0.00    -0.053 A 
ENDBRANCH   7  10
ENDBRANCH   2   4
ENDBRANCH   1   2
BRANCH   1  16
ATOM     16  C   UNL     1      61.132 -19.049 -10.602  0.00  0.00    -0.036 C 
BRANCH  16  17
ATOM     17  C   UNL     1      60.510 -17.733 -10.119  0.00  0.00    -0.039 C 
BRANCH  17  18
ATOM     18  C   UNL     1      59.240 -17.879  -9.264  0.00  0.00    -0.001 C 
BRANCH  18  20
ATOM     19  C   UNL     1      57.572 -16.156  -9.283  0.00  0.00    -0.012 C 
ATOM     20  N   UNL     1      57.992 -17.423  -9.903  0.00  0.00    -0.301 N 
ATOM     21  H   UNL     1      57.275 -18.135  -9.763  0.00  0.00    +0.000 HD
BRANCH  20  22
ATOM     22  C   UNL     1      58.161 -17.247 -11.361  0.00  0.00    +0.024 C 
BRANCH  22  23
ATOM     23  C   UNL     1      57.462 -18.296 -12.210  0.00  0.00    -0.033 A 
ATOM     24  C   UNL     1      56.375 -17.966 -13.034  0.00  0.00    -0.057 A 
ATOM     25  C   UNL     1      55.721 -18.949 -13.781  0.00  0.00    -0.061 A 
ATOM     26  C   UNL     1      56.136 -20.275 -13.703  0.00  0.00    -0.062 A 
ATOM     27  C   UNL     1      57.205 -20.621 -12.878  0.00  0.00    -0.061 A 
ATOM     28  C   UNL     1      57.862 -19.638 -12.132  0.00  0.00    -0.057 A 
ENDBRANCH  22  23
ENDBRANCH  20  22
ENDBRANCH  18  20
ENDBRANCH  17  18
ENDBRANCH  16  17
ENDBRANCH   1  16
TORSDOF 9
ENDMDL
MODEL 19
REMARK VINA RESULT:    -6.434      7.986     11.189
REMARK INTER + INTRA:         -10.441
REMARK INTER:                  -8.000
REMARK INTRA:                  -2.441
REMARK UNBOUND:                -0.621
REMARK  Name = cpd269.pdb
REMARK  10 active torsions:
REMARK  status: ('A' for Active; 'I' for Inactive)
REMARK    1  A    between atoms: C_1  and  N_2
REMARK    2  A    between atoms: N_2  and  C_3
REMARK    3  A    between atoms: N_2  and  C_20
REMARK    4  A    between atoms: C_3  and  C_4
REMARK    5  A    between atoms: C_4  and  C_5
REMARK    6  A    between atoms: C_5  and  C_6
REMARK    7  A    between atoms: C_6  and  N_7
REMARK    8  A    between atoms: N_7  and  C_8
REMARK    9  A    between atoms: C_11  and  C_12
REMARK   10  A    between atoms: C_20  and  C_21
REMARK                            x       y       z     vdW  Elec       q    Type
REMARK                         _______ _______ _______ _____ _____    ______ ____
ROOT
ATOM      1  C   UNL     1      30.703 -32.664 -31.691  0.00  0.00    +0.011 C 
ENDROOT
BRANCH   1   2
ATOM      2  N   UNL     1      31.846 -31.871 -31.234  0.00  0.00    -0.328 N 
ATOM      3  H   UNL     1      31.810 -30.896 -31.099  0.00  0.00    +0.000 HD
BRANCH   2   4
ATOM      4  C   UNL     1      32.997 -32.640 -31.008  0.00  0.00    +0.141 A 
ATOM      5  C   UNL     1      34.038 -32.193 -30.213  0.00  0.00    -0.018 A 
ATOM      6  C   UNL     1      35.159 -33.001 -30.027  0.00  0.00    -0.031 A 
ATOM      7  C   UNL     1      35.213 -34.245 -30.641  0.00  0.00    +0.093 A 
ATOM      8  N   UNL     1      34.169 -34.662 -31.393  0.00  0.00    -0.147 NA
ATOM      9  N   UNL     1      33.058 -33.860 -31.570  0.00  0.00    -0.134 NA
BRANCH   7  10
ATOM     10  C   UNL     1      36.350 -35.178 -30.516  0.00  0.00    +0.002 A 
ATOM     11  C   UNL     1      36.427 -36.134 -29.486  0.00  0.00    -0.053 A 
ATOM     12  C   UNL     1      37.512 -37.011 -29.384  0.00  0.00    -0.061 A 
ATOM     13  C   UNL     1      38.550 -36.950 -30.309  0.00  0.00    -0.062 A 
ATOM     14  C   UNL     1      38.505 -36.010 -31.333  0.00  0.00    -0.061 A 
ATOM     15  C   UNL     1      37.419 -35.134 -31.432  0.00  0.00    -0.053 A 
ENDBRANCH   7  10
ENDBRANCH   2   4
ENDBRANCH   1   2
BRANCH   1  16
ATOM     16  C   UNL     1      29.657 -32.730 -30.579  0.00  0.00    -0.036 C 
BRANCH  16  17
ATOM     17  C   UNL     1      30.182 -33.304 -29.257  0.00  0.00    -0.039 C 
BRANCH  17  18
ATOM     18  C   UNL     1      30.279 -34.838 -29.197  0.00  0.00    -0.001 C 
BRANCH  18  20
ATOM     19  C   UNL     1      32.451 -34.942 -28.186  0.00  0.00    -0.012 C 
ATOM     20  N   UNL     1      31.640 -35.390 -29.329  0.00  0.00    -0.301 N 
ATOM     21  H   UNL     1      32.047 -35.051 -30.201  0.00  0.00    +0.000 HD
BRANCH  20  22
ATOM     22  C   UNL     1      31.622 -36.867 -29.395  0.00  0.00    +0.024 C 
BRANCH  22  23
ATOM     23  C   UNL     1      32.333 -37.455 -30.602  0.00  0.00    -0.033 A 
ATOM     24  C   UNL     1      31.776 -37.382 -31.888  0.00  0.00    -0.057 A 
ATOM     25  C   UNL     1      32.426 -37.957 -32.982  0.00  0.00    -0.061 A 
ATOM     26  C   UNL     1      33.633 -38.626 -32.802  0.00  0.00    -0.062 A 
ATOM     27  C   UNL     1      34.193 -38.720 -31.529  0.00  0.00    -0.061 A 
ATOM     28  C   UNL     1      33.544 -38.142 -30.434  0.00  0.00    -0.057 A 
ENDBRANCH  22  23
ENDBRANCH  20  22
ENDBRANCH  18  20
ENDBRANCH  17  18
ENDBRANCH  16  17
ENDBRANCH   1  16
TORSDOF 9
ENDMDL
MODEL 20
REMARK VINA RESULT:    -6.124     18.143     20.425
REMARK INTER + INTRA:          -9.968
REMARK INTER:                  -7.154
REMARK INTRA:                  -2.814
REMARK UNBOUND:                -0.621
REMARK  Name = cpd269.pdb
REMARK  10 active torsions:
REMARK  status: ('A' for Active; 'I' for Inactive)
REMARK    1  A    between atoms: C_1  and  N_2
REMARK    2  A    between atoms: N_2  and  C_3
REMARK    3  A    between atoms: N_2  and  C_20
REMARK    4  A    between atoms: C_3  and  C_4
REMARK    5  A    between atoms: C_4  and  C_5
REMARK    6  A    between atoms: C_5  and  C_6
REMARK    7  A    between atoms: C_6  and  N_7
REMARK    8  A    between atoms: N_7  and  C_8
REMARK    9  A    between atoms: C_11  and  C_12
REMARK   10  A    between atoms: C_20  and  C_21
REMARK                            x       y       z     vdW  Elec       q    Type
REMARK                         _______ _______ _______ _____ _____    ______ ____
ROOT
ATOM      1  C   UNL     1      44.506 -17.538 -32.590  0.00  0.00    +0.011 C 
ENDROOT
BRANCH   1   2
ATOM      2  N   UNL     1      44.061 -18.926 -32.727  0.00  0.00    -0.328 N 
ATOM      3  H   UNL     1      44.679 -19.688 -32.811  0.00  0.00    +0.000 HD
BRANCH   2   4
ATOM      4  C   UNL     1      42.665 -19.061 -32.727  0.00  0.00    +0.141 A 
ATOM      5  C   UNL     1      42.043 -20.298 -32.757  0.00  0.00    -0.018 A 
ATOM      6  C   UNL     1      40.651 -20.369 -32.758  0.00  0.00    -0.031 A 
ATOM      7  C   UNL     1      39.907 -19.196 -32.726  0.00  0.00    +0.093 A 
ATOM      8  N   UNL     1      40.545 -18.006 -32.674  0.00  0.00    -0.147 NA
ATOM      9  N   UNL     1      41.925 -17.940 -32.668  0.00  0.00    -0.134 NA
BRANCH   7  10
ATOM     10  C   UNL     1      38.432 -19.156 -32.729  0.00  0.00    +0.002 A 
ATOM     11  C   UNL     1      37.650 -20.320 -32.850  0.00  0.00    -0.053 A 
ATOM     12  C   UNL     1      36.252 -20.263 -32.849  0.00  0.00    -0.061 A 
ATOM     13  C   UNL     1      35.602 -19.038 -32.732  0.00  0.00    -0.062 A 
ATOM     14  C   UNL     1      36.349 -17.871 -32.620  0.00  0.00    -0.061 A 
ATOM     15  C   UNL     1      37.746 -17.931 -32.622  0.00  0.00    -0.053 A 
ENDBRANCH   7  10
ENDBRANCH   2   4
ENDBRANCH   1   2
BRANCH   1  16
ATOM     16  C   UNL     1      45.244 -17.115 -33.859  0.00  0.00    -0.036 C 
BRANCH  16  17
ATOM     17  C   UNL     1      44.422 -17.271 -35.144  0.00  0.00    -0.039 C 
BRANCH  17  18
ATOM     18  C   UNL     1      45.007 -18.235 -36.189  0.00  0.00    -0.001 C 
BRANCH  18  20
ATOM     19  C   UNL     1      44.701 -19.553 -38.169  0.00  0.00    -0.012 C 
ATOM     20  N   UNL     1      44.016 -18.948 -37.016  0.00  0.00    -0.301 N 
ATOM     21  H   UNL     1      43.317 -18.278 -37.338  0.00  0.00    +0.000 HD
BRANCH  20  22
ATOM     22  C   UNL     1      43.306 -19.986 -36.239  0.00  0.00    +0.024 C 
BRANCH  22  23
ATOM     23  C   UNL     1      41.791 -19.906 -36.312  0.00  0.00    -0.033 A 
ATOM     24  C   UNL     1      41.122 -18.671 -36.325  0.00  0.00    -0.057 A 
ATOM     25  C   UNL     1      39.728 -18.615 -36.357  0.00  0.00    -0.061 A 
ATOM     26  C   UNL     1      38.982 -19.791 -36.361  0.00  0.00    -0.062 A 
ATOM     27  C   UNL     1      39.630 -21.024 -36.334  0.00  0.00    -0.061 A 
ATOM     28  C   UNL     1      41.027 -21.082 -36.305  0.00  0.00    -0.057 A 
ENDBRANCH  22  23
ENDBRANCH  20  22
ENDBRANCH  18  20
ENDBRANCH  17  18
ENDBRANCH  16  17
ENDBRANCH   1  16
TORSDOF 9
ENDMDL
