REMARK  Name = cpd269.pdb
REMARK  10 active torsions:
REMARK  status: ('A' for Active; 'I' for Inactive)
REMARK    1  A    between atoms: C_1  and  N_2
REMARK    2  A    between atoms: N_2  and  C_3
REMARK    3  A    between atoms: N_2  and  C_20
REMARK    4  A    between atoms: C_3  and  C_4
REMARK    5  A    between atoms: C_4  and  C_5
REMARK    6  A    between atoms: C_5  and  C_6
REMARK    7  A    between atoms: C_6  and  N_7
REMARK    8  A    between atoms: N_7  and  C_8
REMARK    9  A    between atoms: C_11  and  C_12
REMARK   10  A    between atoms: C_20  and  C_21
REMARK                            x       y       z     vdW  Elec       q    Type
REMARK                         _______ _______ _______ _____ _____    ______ ____
ROOT
ATOM      1  C   UNL     1       0.096  -4.498  -0.386  0.00  0.00    +0.011 C 
ENDROOT
BRANCH   1   2
ATOM      2  N   UNL     1      -1.031  -5.403  -0.622  0.00  0.00    -0.328 N 
ATOM      3  H   UNL     1      -0.925  -6.365  -0.803  0.00  0.00    +0.000 HD
BRANCH   2   4
ATOM      4  C   UNL     1      -2.276  -4.761  -0.564  0.00  0.00    +0.141 A 
ATOM      5  C   UNL     1      -2.611  -3.722  -1.416  0.00  0.00    -0.018 A 
ATOM      6  C   UNL     1      -3.864  -3.120  -1.309  0.00  0.00    -0.031 A 
ATOM      7  C   UNL     1      -4.760  -3.574  -0.350  0.00  0.00    +0.093 A 
ATOM      8  N   UNL     1      -4.411  -4.605   0.451  0.00  0.00    -0.147 NA
ATOM      9  N   UNL     1      -3.170  -5.202   0.338  0.00  0.00    -0.134 NA
BRANCH   7  10
ATOM     10  C   UNL     1      -6.108  -3.007  -0.147  0.00  0.00    +0.002 A 
ATOM     11  C   UNL     1      -6.404  -1.659  -0.425  0.00  0.00    -0.053 A 
ATOM     12  C   UNL     1      -7.688  -1.139  -0.228  0.00  0.00    -0.061 A 
ATOM     13  C   UNL     1      -8.706  -1.955   0.256  0.00  0.00    -0.062 A 
ATOM     14  C   UNL     1      -8.440  -3.288   0.547  0.00  0.00    -0.061 A 
ATOM     15  C   UNL     1      -7.156  -3.805   0.350  0.00  0.00    -0.053 A 
ENDBRANCH   7  10
ENDBRANCH   2   4
ENDBRANCH   1   2
BRANCH   1  16
ATOM     16  C   UNL     1       1.395  -5.303  -0.365  0.00  0.00    -0.036 C 
BRANCH  16  17
ATOM     17  C   UNL     1       2.664  -4.449  -0.471  0.00  0.00    -0.039 C 
BRANCH  17  18
ATOM     18  C   UNL     1       2.938  -3.524   0.726  0.00  0.00    -0.001 C 
BRANCH  18  20
ATOM     19  C   UNL     1       2.166  -1.832   2.240  0.00  0.00    -0.012 C 
ATOM     20  N   UNL     1       1.978  -2.419   0.904  0.00  0.00    -0.301 N 
ATOM     21  H   UNL     1       1.032  -2.791   0.816  0.00  0.00    +0.000 HD
BRANCH  20  22
ATOM     22  C   UNL     1       2.143  -1.383  -0.138  0.00  0.00    +0.024 C 
BRANCH  22  23
ATOM     23  C   UNL     1       1.083  -0.295  -0.122  0.00  0.00    -0.033 A 
ATOM     24  C   UNL     1      -0.279  -0.601   0.025  0.00  0.00    -0.057 A 
ATOM     25  C   UNL     1      -1.244   0.408   0.003  0.00  0.00    -0.061 A 
ATOM     26  C   UNL     1      -0.862   1.734  -0.181  0.00  0.00    -0.062 A 
ATOM     27  C   UNL     1       0.485   2.053  -0.343  0.00  0.00    -0.061 A 
ATOM     28  C   UNL     1       1.452   1.044  -0.318  0.00  0.00    -0.057 A 
ENDBRANCH  22  23
ENDBRANCH  20  22
ENDBRANCH  18  20
ENDBRANCH  17  18
ENDBRANCH  16  17
ENDBRANCH   1  16
TORSDOF 9
