@<TRIPOS>MOLECULE
*****
 26 28 0 0 0
SMALL
GASTEIGER

@<TRIPOS>ATOM
      1 C          -0.0000   -3.0000    0.0000 C.3     1  UNL1        0.0899
      2 N           0.8660   -2.5000    0.0000 N.3     1  UNL1       -0.2678
      3 C           1.7321   -3.0000    0.0000 C.3     1  UNL1        0.0725
      4 C           1.7321   -4.0000    0.0000 C.3     1  UNL1        0.0192
      5 C           0.8660   -4.5000    0.0000 C.3     1  UNL1        0.0248
      6 C          -0.0000   -4.0000    0.0000 C.3     1  UNL1        0.1139
      7 N          -0.8660   -4.5000    0.0000 N.pl3   1  UNL1       -0.2189
      8 C          -1.7321   -4.0000    0.0000 C.ar    1  UNL1        0.1693
      9 C          -1.7321   -3.0000    0.0000 C.ar    1  UNL1        0.0392
     10 C          -2.5981   -2.5000    0.0000 C.ar    1  UNL1        0.0239
     11 C          -3.4641   -3.0000    0.0000 C.ar    1  UNL1        0.1030
     12 C          -4.3301   -2.5000    0.0000 C.ar    1  UNL1        0.0194
     13 C          -4.3301   -1.5000    0.0000 C.ar    1  UNL1        0.0016
     14 C          -5.1962   -1.0000    0.0000 C.ar    1  UNL1        0.0000
     15 C          -6.0622   -1.5000    0.0000 C.ar    1  UNL1        0.0000
     16 C          -6.0622   -2.5000    0.0000 C.ar    1  UNL1        0.0000
     17 C          -5.1962   -3.0000    0.0000 C.ar    1  UNL1        0.0016
     18 N          -3.4641   -4.0000    0.0000 N.ar    1  UNL1       -0.1467
     19 N          -2.5981   -4.5000    0.0000 N.ar    1  UNL1       -0.1314
     20 C           0.8660   -1.5000    0.0000 C.3     1  UNL1        0.0992
     21 C          -0.0000   -1.0000    0.0000 C.ar    1  UNL1       -0.0061
     22 C          -0.8660   -1.5000    0.0000 C.ar    1  UNL1       -0.0029
     23 C          -1.7321   -1.0000    0.0000 C.ar    1  UNL1       -0.0003
     24 C          -1.7321    0.0000    0.0000 C.ar    1  UNL1       -0.0000
     25 C          -0.8660    0.5000    0.0000 C.ar    1  UNL1       -0.0003
     26 C           0.0000    0.0000    0.0000 C.ar    1  UNL1       -0.0029
@<TRIPOS>BOND
     1     1     2    1
     2     2     3    1
     3     3     4    1
     4     4     5    1
     5     5     6    1
     6     6     7    1
     7     7     8    1
     8     8     9   ar
     9     9    10   ar
    10    10    11   ar
    11    11    12    1
    12    12    13   ar
    13    13    14   ar
    14    14    15   ar
    15    15    16   ar
    16    16    17   ar
    17    12    17   ar
    18    11    18   ar
    19    18    19   ar
    20     8    19   ar
    21     2    20    1
    22    20    21    1
    23    21    22   ar
    24    22    23   ar
    25    23    24   ar
    26    24    25   ar
    27    25    26   ar
    28    21    26   ar
