@<TRIPOS>MOLECULE
*****
 25 27 0 0 0
SMALL
GASTEIGER

@<TRIPOS>ATOM
      1 C           2.5981   -0.5000    0.0000 C.3     1  UNL1        0.0773
      2 C           1.7321   -0.0000    0.0000 C.2     1  UNL1        0.1735
      3 O           1.7321    1.0000    0.0000 O.2     1  UNL1       -0.2913
      4 C           0.8660   -0.5000    0.0000 C.ar    1  UNL1        0.0344
      5 C           0.8660   -1.5000    0.0000 C.ar    1  UNL1        0.0028
      6 C           0.0000   -2.0000    0.0000 C.ar    1  UNL1       -0.0002
      7 C          -0.8660   -1.5000    0.0000 C.ar    1  UNL1       -0.0034
      8 C          -0.8660   -0.5000    0.0000 C.ar    1  UNL1       -0.0112
      9 C          -1.7321   -0.0000    0.0000 C.3     1  UNL1        0.0841
     10 S          -2.5981   -0.5000    0.0000 S.3     1  UNL1       -0.1306
     11 C          -2.5981   -1.5000    0.0000 C.3     1  UNL1        0.0866
     12 C          -3.4641   -2.0000    0.0000 C.ar    1  UNL1        0.0191
     13 C          -3.4641   -3.0000    0.0000 C.ar    1  UNL1        0.0575
     14 C          -2.5981   -3.5000    0.0000 C.3     1  UNL1        0.0518
     15 N          -4.3301   -3.5000    0.0000 N.ar    1  UNL1       -0.2498
     16 C          -5.1962   -3.0000    0.0000 C.ar    1  UNL1        0.0843
     17 C          -6.0622   -3.5000    0.0000 C.ar    1  UNL1        0.0193
     18 C          -6.9282   -3.0000    0.0000 C.ar    1  UNL1        0.0039
     19 C          -6.9282   -2.0000    0.0000 C.ar    1  UNL1        0.0298
     20 C          -6.0622   -1.5000    0.0000 C.ar    1  UNL1        0.1428
     21 F          -6.0622   -0.5000    0.0000 F       1  UNL1       -0.2041
     22 C          -5.1962   -2.0000    0.0000 C.ar    1  UNL1        0.0616
     23 C          -4.3301   -1.5000    0.0000 C.ar    1  UNL1        0.0906
     24 N          -4.3301   -0.5000    0.0000 N.pl3   1  UNL1       -0.1282
     25 C          -0.0000   -0.0000    0.0000 C.ar    1  UNL1       -0.0006
@<TRIPOS>BOND
     1     1     2    1
     2     2     3    2
     3     2     4    1
     4     4     5   ar
     5     5     6   ar
     6     6     7   ar
     7     7     8   ar
     8     8     9    1
     9     9    10    1
    10    10    11    1
    11    11    12    1
    12    12    13   ar
    13    13    14    1
    14    13    15   ar
    15    15    16   ar
    16    16    17   ar
    17    17    18   ar
    18    18    19   ar
    19    19    20   ar
    20    20    21    1
    21    20    22   ar
    22    16    22   ar
    23    22    23   ar
    24    12    23   ar
    25    23    24    1
    26     8    25   ar
    27     4    25   ar
