REMARK  Name = cpd204.pdb
REMARK  8 active torsions:
REMARK  status: ('A' for Active; 'I' for Inactive)
REMARK    1  A    between atoms: C_1  and  C_2
REMARK    2  A    between atoms: C_2  and  C_4
REMARK    3  A    between atoms: C_8  and  C_9
REMARK    4  A    between atoms: C_9  and  S_10
REMARK    5  A    between atoms: S_10  and  C_11
REMARK    6  A    between atoms: C_11  and  C_12
REMARK    7  A    between atoms: C_13  and  C_14
REMARK    8  A    between atoms: C_23  and  N_24
REMARK                            x       y       z     vdW  Elec       q    Type
REMARK                         _______ _______ _______ _____ _____    ______ ____
ROOT
ATOM      1  C   UNL A   1      -4.110  -1.813   0.114  0.00  0.00    +0.005 A 
ATOM      2  C   UNL A   1      -3.997  -3.207   0.147  0.00  0.00    +0.045 A 
ATOM      3  C   UNL A   1      -2.675  -3.911   0.031  0.00  0.00    -0.022 C 
ATOM      4  N   UNL A   1      -5.064  -4.029   0.304  0.00  0.00    -0.251 NA
ATOM      5  C   UNL A   1      -6.287  -3.501   0.431  0.00  0.00    +0.076 A 
ATOM      6  C   UNL A   1      -7.355  -4.374   0.613  0.00  0.00    -0.035 A 
ATOM      7  C   UNL A   1      -8.669  -3.924   0.750  0.00  0.00    -0.057 A 
ATOM      8  C   UNL A   1      -8.926  -2.564   0.700  0.00  0.00    -0.026 A 
ATOM      9  C   UNL A   1      -7.867  -1.680   0.517  0.00  0.00    +0.134 A 
ATOM     10  F   UNL A   1      -8.161  -0.370   0.444  0.00  0.00    -0.205 F 
ATOM     11  C   UNL A   1      -6.528  -2.117   0.383  0.00  0.00    +0.056 A 
ATOM     12  C   UNL A   1      -5.409  -1.264   0.175  0.00  0.00    +0.042 A 
ENDROOT
BRANCH  12  13
ATOM     13  N   UNL A   1      -5.564   0.146   0.213  0.00  0.00    -0.357 N 
ATOM     14  H   UNL A   1      -4.785   0.731   0.068  0.00  0.00    +0.000 HD
ATOM     15  H   UNL A   1      -6.450   0.539   0.384  0.00  0.00    +0.000 HD
ENDBRANCH  12  13
BRANCH   1  16
ATOM     16  C   UNL A   1      -2.890  -0.928  -0.004  0.00  0.00    +0.023 C 
BRANCH  16  17
ATOM     17  S   UNL A   1      -2.660  -0.353  -1.721  0.00  0.00    -0.151 S 
BRANCH  17  18
ATOM     18  C   UNL A   1      -1.146   0.630  -1.506  0.00  0.00    +0.019 C 
BRANCH  18  23
ATOM     19  C   UNL A   1       2.124  -0.462   0.143  0.00  0.00    +0.017 A 
ATOM     20  C   UNL A   1       2.468  -1.579  -0.624  0.00  0.00    -0.051 A 
ATOM     21  C   UNL A   1       1.641  -1.986  -1.672  0.00  0.00    -0.061 A 
ATOM     22  C   UNL A   1       0.470  -1.283  -1.958  0.00  0.00    -0.058 A 
ATOM     23  C   UNL A   1       0.091  -0.176  -1.185  0.00  0.00    -0.037 A 
ATOM     24  C   UNL A   1       0.934   0.228  -0.137  0.00  0.00    -0.047 A 
BRANCH  19  26
ATOM     25  C   UNL A   1       4.370  -0.542   1.419  0.00  0.00    -0.001 C 
ATOM     26  C   UNL A   1       2.989   0.037   1.253  0.00  0.00    +0.160 C 
ATOM     27  O   UNL A   1       2.568   0.908   2.011  0.00  0.00    -0.292 OA
ENDBRANCH  19  26
ENDBRANCH  18  23
ENDBRANCH  17  18
ENDBRANCH  16  17
ENDBRANCH   1  16
TORSDOF 6
