MODEL 1
REMARK VINA RESULT:    -8.083      0.000      0.000
REMARK INTER + INTRA:         -11.691
REMARK INTER:                 -10.682
REMARK INTRA:                  -1.009
REMARK UNBOUND:                -1.009
REMARK  Name = cpd204.pdb
REMARK  8 active torsions:
REMARK  status: ('A' for Active; 'I' for Inactive)
REMARK    1  A    between atoms: C_1  and  C_2
REMARK    2  A    between atoms: C_2  and  C_4
REMARK    3  A    between atoms: C_8  and  C_9
REMARK    4  A    between atoms: C_9  and  S_10
REMARK    5  A    between atoms: S_10  and  C_11
REMARK    6  A    between atoms: C_11  and  C_12
REMARK    7  A    between atoms: C_13  and  C_14
REMARK    8  A    between atoms: C_23  and  N_24
REMARK                            x       y       z     vdW  Elec       q    Type
REMARK                         _______ _______ _______ _____ _____    ______ ____
ROOT
ATOM      1  C   UNL A   1      36.871 -36.424 -29.875  0.00  0.00    +0.005 A 
ATOM      2  C   UNL A   1      37.396 -37.197 -28.834  0.00  0.00    +0.045 A 
ATOM      3  C   UNL A   1      36.589 -37.572 -27.623  0.00  0.00    -0.022 C 
ATOM      4  N   UNL A   1      38.661 -37.683 -28.843  0.00  0.00    -0.251 NA
ATOM      5  C   UNL A   1      39.459 -37.419 -29.884  0.00  0.00    +0.076 A 
ATOM      6  C   UNL A   1      40.744 -37.953 -29.869  0.00  0.00    -0.035 A 
ATOM      7  C   UNL A   1      41.654 -37.731 -30.904  0.00  0.00    -0.057 A 
ATOM      8  C   UNL A   1      41.274 -36.950 -31.982  0.00  0.00    -0.026 A 
ATOM      9  C   UNL A   1      39.992 -36.409 -32.009  0.00  0.00    +0.134 A 
ATOM     10  F   UNL A   1      39.671 -35.632 -33.059  0.00  0.00    -0.205 F 
ATOM     11  C   UNL A   1      39.054 -36.628 -30.973  0.00  0.00    +0.056 A 
ATOM     12  C   UNL A   1      37.739 -36.087 -30.936  0.00  0.00    +0.042 A 
ENDROOT
BRANCH  12  13
ATOM     13  N   UNL A   1      37.229 -35.362 -32.044  0.00  0.00    -0.357 N 
ATOM     14  H   UNL A   1      37.739 -34.605 -32.414  0.00  0.00    +0.000 HD
ATOM     15  H   UNL A   1      36.366 -35.616 -32.443  0.00  0.00    +0.000 HD
ENDBRANCH  12  13
BRANCH   1  16
ATOM     16  C   UNL A   1      35.436 -35.949 -29.856  0.00  0.00    +0.023 C 
BRANCH  16  17
ATOM     17  S   UNL A   1      34.456 -36.769 -31.159  0.00  0.00    -0.151 S 
BRANCH  17  18
ATOM     18  C   UNL A   1      33.599 -38.015 -30.149  0.00  0.00    +0.019 C 
BRANCH  18  23
ATOM     19  C   UNL A   1      34.851 -41.235 -28.515  0.00  0.00    +0.017 A 
ATOM     20  C   UNL A   1      35.888 -41.604 -29.376  0.00  0.00    -0.051 A 
ATOM     21  C   UNL A   1      36.182 -40.817 -30.491  0.00  0.00    -0.061 A 
ATOM     22  C   UNL A   1      35.443 -39.662 -30.750  0.00  0.00    -0.058 A 
ATOM     23  C   UNL A   1      34.381 -39.286 -29.916  0.00  0.00    -0.037 A 
ATOM     24  C   UNL A   1      34.098 -40.083 -28.794  0.00  0.00    -0.047 A 
BRANCH  19  26
ATOM     25  C   UNL A   1      34.340 -43.513 -27.407  0.00  0.00    -0.001 C 
ATOM     26  C   UNL A   1      34.516 -42.021 -27.291  0.00  0.00    +0.160 C 
ATOM     27  O   UNL A   1      34.391 -41.447 -26.211  0.00  0.00    -0.292 OA
ENDBRANCH  19  26
ENDBRANCH  18  23
ENDBRANCH  17  18
ENDBRANCH  16  17
ENDBRANCH   1  16
TORSDOF 6
ENDMDL
MODEL 2
REMARK VINA RESULT:    -7.967      2.539      3.351
REMARK INTER + INTRA:         -11.538
REMARK INTER:                 -10.676
REMARK INTRA:                  -0.861
REMARK UNBOUND:                -1.009
REMARK  Name = cpd204.pdb
REMARK  8 active torsions:
REMARK  status: ('A' for Active; 'I' for Inactive)
REMARK    1  A    between atoms: C_1  and  C_2
REMARK    2  A    between atoms: C_2  and  C_4
REMARK    3  A    between atoms: C_8  and  C_9
REMARK    4  A    between atoms: C_9  and  S_10
REMARK    5  A    between atoms: S_10  and  C_11
REMARK    6  A    between atoms: C_11  and  C_12
REMARK    7  A    between atoms: C_13  and  C_14
REMARK    8  A    between atoms: C_23  and  N_24
REMARK                            x       y       z     vdW  Elec       q    Type
REMARK                         _______ _______ _______ _____ _____    ______ ____
ROOT
ATOM      1  C   UNL A   1      37.370 -36.513 -29.963  0.00  0.00    +0.005 A 
ATOM      2  C   UNL A   1      37.986 -37.299 -28.983  0.00  0.00    +0.045 A 
ATOM      3  C   UNL A   1      37.281 -37.714 -27.723  0.00  0.00    -0.022 C 
ATOM      4  N   UNL A   1      39.255 -37.761 -29.100  0.00  0.00    -0.251 NA
ATOM      5  C   UNL A   1      39.966 -37.459 -30.193  0.00  0.00    +0.076 A 
ATOM      6  C   UNL A   1      41.257 -37.970 -30.288  0.00  0.00    -0.035 A 
ATOM      7  C   UNL A   1      42.081 -37.709 -31.384  0.00  0.00    -0.057 A 
ATOM      8  C   UNL A   1      41.606 -36.913 -32.413  0.00  0.00    -0.026 A 
ATOM      9  C   UNL A   1      40.317 -36.395 -32.329  0.00  0.00    +0.134 A 
ATOM     10  F   UNL A   1      39.903 -35.603 -33.333  0.00  0.00    -0.205 F 
ATOM     11  C   UNL A   1      39.465 -36.654 -31.229  0.00  0.00    +0.056 A 
ATOM     12  C   UNL A   1      38.148 -36.138 -31.079  0.00  0.00    +0.042 A 
ENDROOT
BRANCH  12  13
ATOM     13  N   UNL A   1      37.542 -35.399 -32.129  0.00  0.00    -0.357 N 
ATOM     14  H   UNL A   1      37.079 -35.870 -32.859  0.00  0.00    +0.000 HD
ATOM     15  H   UNL A   1      37.585 -34.416 -32.126  0.00  0.00    +0.000 HD
ENDBRANCH  12  13
BRANCH   1  16
ATOM     16  C   UNL A   1      35.933 -36.066 -29.823  0.00  0.00    +0.023 C 
BRANCH  16  17
ATOM     17  S   UNL A   1      34.785 -37.342 -30.445  0.00  0.00    -0.151 S 
BRANCH  17  18
ATOM     18  C   UNL A   1      33.339 -36.974 -29.405  0.00  0.00    +0.019 C 
BRANCH  18  23
ATOM     19  C   UNL A   1      33.263 -37.194 -25.591  0.00  0.00    +0.017 A 
ATOM     20  C   UNL A   1      33.629 -38.526 -25.377  0.00  0.00    -0.051 A 
ATOM     21  C   UNL A   1      33.896 -39.359 -26.466  0.00  0.00    -0.061 A 
ATOM     22  C   UNL A   1      33.798 -38.867 -27.768  0.00  0.00    -0.058 A 
ATOM     23  C   UNL A   1      33.405 -37.542 -28.007  0.00  0.00    -0.037 A 
ATOM     24  C   UNL A   1      33.145 -36.713 -26.904  0.00  0.00    -0.047 A 
BRANCH  19  26
ATOM     25  C   UNL A   1      33.725 -36.454 -23.158  0.00  0.00    -0.001 C 
ATOM     26  C   UNL A   1      33.000 -36.252 -24.463  0.00  0.00    +0.160 C 
ATOM     27  O   UNL A   1      32.202 -35.329 -24.612  0.00  0.00    -0.292 OA
ENDBRANCH  19  26
ENDBRANCH  18  23
ENDBRANCH  17  18
ENDBRANCH  16  17
ENDBRANCH   1  16
TORSDOF 6
ENDMDL
MODEL 3
REMARK VINA RESULT:    -7.846      3.494      5.338
REMARK INTER + INTRA:         -11.378
REMARK INTER:                 -10.790
REMARK INTRA:                  -0.588
REMARK UNBOUND:                -1.009
REMARK  Name = cpd204.pdb
REMARK  8 active torsions:
REMARK  status: ('A' for Active; 'I' for Inactive)
REMARK    1  A    between atoms: C_1  and  C_2
REMARK    2  A    between atoms: C_2  and  C_4
REMARK    3  A    between atoms: C_8  and  C_9
REMARK    4  A    between atoms: C_9  and  S_10
REMARK    5  A    between atoms: S_10  and  C_11
REMARK    6  A    between atoms: C_11  and  C_12
REMARK    7  A    between atoms: C_13  and  C_14
REMARK    8  A    between atoms: C_23  and  N_24
REMARK                            x       y       z     vdW  Elec       q    Type
REMARK                         _______ _______ _______ _____ _____    ______ ____
ROOT
ATOM      1  C   UNL A   1      37.784 -36.898 -30.148  0.00  0.00    +0.005 A 
ATOM      2  C   UNL A   1      38.364 -37.580 -29.073  0.00  0.00    +0.045 A 
ATOM      3  C   UNL A   1      37.586 -37.957 -27.844  0.00  0.00    -0.022 C 
ATOM      4  N   UNL A   1      39.663 -37.968 -29.062  0.00  0.00    -0.251 NA
ATOM      5  C   UNL A   1      40.440 -37.693 -30.116  0.00  0.00    +0.076 A 
ATOM      6  C   UNL A   1      41.761 -38.127 -30.079  0.00  0.00    -0.035 A 
ATOM      7  C   UNL A   1      42.653 -37.886 -31.124  0.00  0.00    -0.057 A 
ATOM      8  C   UNL A   1      42.216 -37.188 -32.238  0.00  0.00    -0.026 A 
ATOM      9  C   UNL A   1      40.897 -36.747 -32.287  0.00  0.00    +0.134 A 
ATOM     10  F   UNL A   1      40.520 -36.047 -33.371  0.00  0.00    -0.205 F 
ATOM     11  C   UNL A   1      39.977 -36.988 -31.240  0.00  0.00    +0.056 A 
ATOM     12  C   UNL A   1      38.625 -36.546 -31.225  0.00  0.00    +0.042 A 
ENDROOT
BRANCH  12  13
ATOM     13  N   UNL A   1      38.063 -35.914 -32.365  0.00  0.00    -0.357 N 
ATOM     14  H   UNL A   1      38.345 -36.189 -33.268  0.00  0.00    +0.000 HD
ATOM     15  H   UNL A   1      37.393 -35.203 -32.253  0.00  0.00    +0.000 HD
ENDBRANCH  12  13
BRANCH   1  16
ATOM     16  C   UNL A   1      36.317 -36.532 -30.148  0.00  0.00    +0.023 C 
BRANCH  16  17
ATOM     17  S   UNL A   1      35.307 -37.871 -30.869  0.00  0.00    -0.151 S 
BRANCH  17  18
ATOM     18  C   UNL A   1      34.199 -36.879 -31.915  0.00  0.00    +0.019 C 
BRANCH  18  23
ATOM     19  C   UNL A   1      33.142 -33.385 -30.786  0.00  0.00    +0.017 A 
ATOM     20  C   UNL A   1      32.212 -33.680 -29.784  0.00  0.00    -0.051 A 
ATOM     21  C   UNL A   1      31.920 -35.010 -29.476  0.00  0.00    -0.061 A 
ATOM     22  C   UNL A   1      32.551 -36.047 -30.163  0.00  0.00    -0.058 A 
ATOM     23  C   UNL A   1      33.467 -35.774 -31.190  0.00  0.00    -0.037 A 
ATOM     24  C   UNL A   1      33.758 -34.433 -31.488  0.00  0.00    -0.047 A 
BRANCH  19  26
ATOM     25  C   UNL A   1      32.761 -30.845 -30.495  0.00  0.00    -0.001 C 
ATOM     26  C   UNL A   1      33.517 -31.982 -31.133  0.00  0.00    +0.160 C 
ATOM     27  O   UNL A   1      34.431 -31.773 -31.928  0.00  0.00    -0.292 OA
ENDBRANCH  19  26
ENDBRANCH  18  23
ENDBRANCH  17  18
ENDBRANCH  16  17
ENDBRANCH   1  16
TORSDOF 6
ENDMDL
MODEL 4
REMARK VINA RESULT:    -7.748      1.469      2.222
REMARK INTER + INTRA:         -11.248
REMARK INTER:                 -10.247
REMARK INTRA:                  -1.001
REMARK UNBOUND:                -1.009
REMARK  Name = cpd204.pdb
REMARK  8 active torsions:
REMARK  status: ('A' for Active; 'I' for Inactive)
REMARK    1  A    between atoms: C_1  and  C_2
REMARK    2  A    between atoms: C_2  and  C_4
REMARK    3  A    between atoms: C_8  and  C_9
REMARK    4  A    between atoms: C_9  and  S_10
REMARK    5  A    between atoms: S_10  and  C_11
REMARK    6  A    between atoms: C_11  and  C_12
REMARK    7  A    between atoms: C_13  and  C_14
REMARK    8  A    between atoms: C_23  and  N_24
REMARK                            x       y       z     vdW  Elec       q    Type
REMARK                         _______ _______ _______ _____ _____    ______ ____
ROOT
ATOM      1  C   UNL A   1      37.479 -36.446 -30.053  0.00  0.00    +0.005 A 
ATOM      2  C   UNL A   1      37.979 -37.258 -29.030  0.00  0.00    +0.045 A 
ATOM      3  C   UNL A   1      37.166 -37.623 -27.821  0.00  0.00    -0.022 C 
ATOM      4  N   UNL A   1      39.225 -37.793 -29.056  0.00  0.00    -0.251 NA
ATOM      5  C   UNL A   1      40.026 -37.541 -30.098  0.00  0.00    +0.076 A 
ATOM      6  C   UNL A   1      41.289 -38.125 -30.102  0.00  0.00    -0.035 A 
ATOM      7  C   UNL A   1      42.201 -37.920 -31.138  0.00  0.00    -0.057 A 
ATOM      8  C   UNL A   1      41.845 -37.105 -32.200  0.00  0.00    -0.026 A 
ATOM      9  C   UNL A   1      40.585 -36.514 -32.208  0.00  0.00    +0.134 A 
ATOM     10  F   UNL A   1      40.288 -35.706 -33.241  0.00  0.00    -0.205 F 
ATOM     11  C   UNL A   1      39.645 -36.715 -31.170  0.00  0.00    +0.056 A 
ATOM     12  C   UNL A   1      38.353 -36.124 -31.114  0.00  0.00    +0.042 A 
ENDROOT
BRANCH  12  13
ATOM     13  N   UNL A   1      37.865 -35.359 -32.205  0.00  0.00    -0.357 N 
ATOM     14  H   UNL A   1      38.176 -34.434 -32.336  0.00  0.00    +0.000 HD
ATOM     15  H   UNL A   1      37.217 -35.754 -32.831  0.00  0.00    +0.000 HD
ENDBRANCH  12  13
BRANCH   1  16
ATOM     16  C   UNL A   1      36.063 -35.916 -30.015  0.00  0.00    +0.023 C 
BRANCH  16  17
ATOM     17  S   UNL A   1      34.923 -37.026 -30.910  0.00  0.00    -0.151 S 
BRANCH  17  18
ATOM     18  C   UNL A   1      33.454 -36.858 -29.853  0.00  0.00    +0.019 C 
BRANCH  18  23
ATOM     19  C   UNL A   1      33.806 -39.259 -26.901  0.00  0.00    +0.017 A 
ATOM     20  C   UNL A   1      33.836 -38.374 -25.819  0.00  0.00    -0.051 A 
ATOM     21  C   UNL A   1      33.749 -36.999 -26.041  0.00  0.00    -0.061 A 
ATOM     22  C   UNL A   1      33.633 -36.502 -27.339  0.00  0.00    -0.058 A 
ATOM     23  C   UNL A   1      33.628 -37.369 -28.442  0.00  0.00    -0.037 A 
ATOM     24  C   UNL A   1      33.710 -38.751 -28.206  0.00  0.00    -0.047 A 
BRANCH  19  26
ATOM     25  C   UNL A   1      33.562 -41.632 -27.895  0.00  0.00    -0.001 C 
ATOM     26  C   UNL A   1      33.861 -40.740 -26.718  0.00  0.00    +0.160 C 
ATOM     27  O   UNL A   1      34.149 -41.210 -25.619  0.00  0.00    -0.292 OA
ENDBRANCH  19  26
ENDBRANCH  18  23
ENDBRANCH  17  18
ENDBRANCH  16  17
ENDBRANCH   1  16
TORSDOF 6
ENDMDL
MODEL 5
REMARK VINA RESULT:    -7.517      3.273      5.267
REMARK INTER + INTRA:         -10.942
REMARK INTER:                 -10.351
REMARK INTRA:                  -0.591
REMARK UNBOUND:                -1.009
REMARK  Name = cpd204.pdb
REMARK  8 active torsions:
REMARK  status: ('A' for Active; 'I' for Inactive)
REMARK    1  A    between atoms: C_1  and  C_2
REMARK    2  A    between atoms: C_2  and  C_4
REMARK    3  A    between atoms: C_8  and  C_9
REMARK    4  A    between atoms: C_9  and  S_10
REMARK    5  A    between atoms: S_10  and  C_11
REMARK    6  A    between atoms: C_11  and  C_12
REMARK    7  A    between atoms: C_13  and  C_14
REMARK    8  A    between atoms: C_23  and  N_24
REMARK                            x       y       z     vdW  Elec       q    Type
REMARK                         _______ _______ _______ _____ _____    ______ ____
ROOT
ATOM      1  C   UNL A   1      38.058 -36.916 -29.627  0.00  0.00    +0.005 A 
ATOM      2  C   UNL A   1      38.064 -36.101 -30.764  0.00  0.00    +0.045 A 
ATOM      3  C   UNL A   1      36.890 -35.245 -31.147  0.00  0.00    -0.022 C 
ATOM      4  N   UNL A   1      39.130 -36.005 -31.596  0.00  0.00    -0.251 NA
ATOM      5  C   UNL A   1      40.233 -36.717 -31.336  0.00  0.00    +0.076 A 
ATOM      6  C   UNL A   1      41.315 -36.577 -32.199  0.00  0.00    -0.035 A 
ATOM      7  C   UNL A   1      42.507 -37.279 -32.018  0.00  0.00    -0.057 A 
ATOM      8  C   UNL A   1      42.623 -38.150 -30.947  0.00  0.00    -0.026 A 
ATOM      9  C   UNL A   1      41.547 -38.301 -30.077  0.00  0.00    +0.134 A 
ATOM     10  F   UNL A   1      41.687 -39.178 -29.067  0.00  0.00    -0.205 F 
ATOM     11  C   UNL A   1      40.333 -37.593 -30.241  0.00  0.00    +0.056 A 
ATOM     12  C   UNL A   1      39.195 -37.720 -29.397  0.00  0.00    +0.042 A 
ENDROOT
BRANCH  12  13
ATOM     13  N   UNL A   1      39.259 -38.510 -28.220  0.00  0.00    -0.357 N 
ATOM     14  H   UNL A   1      39.564 -38.109 -27.374  0.00  0.00    +0.000 HD
ATOM     15  H   UNL A   1      38.998 -39.458 -28.249  0.00  0.00    +0.000 HD
ENDBRANCH  12  13
BRANCH   1  16
ATOM     16  C   UNL A   1      36.871 -36.952 -28.691  0.00  0.00    +0.023 C 
BRANCH  16  17
ATOM     17  S   UNL A   1      35.617 -38.146 -29.267  0.00  0.00    -0.151 S 
BRANCH  17  18
ATOM     18  C   UNL A   1      34.366 -37.914 -27.969  0.00  0.00    +0.019 C 
BRANCH  18  23
ATOM     19  C   UNL A   1      33.138 -34.525 -29.239  0.00  0.00    +0.017 A 
ATOM     20  C   UNL A   1      32.234 -34.159 -28.237  0.00  0.00    -0.051 A 
ATOM     21  C   UNL A   1      32.014 -35.009 -27.152  0.00  0.00    -0.061 A 
ATOM     22  C   UNL A   1      32.692 -36.225 -27.062  0.00  0.00    -0.058 A 
ATOM     23  C   UNL A   1      33.583 -36.625 -28.068  0.00  0.00    -0.037 A 
ATOM     24  C   UNL A   1      33.801 -35.759 -29.152  0.00  0.00    -0.047 A 
BRANCH  19  26
ATOM     25  C   UNL A   1      34.288 -32.415 -30.189  0.00  0.00    -0.001 C 
ATOM     26  C   UNL A   1      33.436 -33.639 -30.403  0.00  0.00    +0.160 C 
ATOM     27  O   UNL A   1      32.988 -33.918 -31.513  0.00  0.00    -0.292 OA
ENDBRANCH  19  26
ENDBRANCH  18  23
ENDBRANCH  17  18
ENDBRANCH  16  17
ENDBRANCH   1  16
TORSDOF 6
ENDMDL
MODEL 6
REMARK VINA RESULT:    -7.420      3.966      6.020
REMARK INTER + INTRA:         -10.814
REMARK INTER:                 -10.213
REMARK INTRA:                  -0.601
REMARK UNBOUND:                -1.009
REMARK  Name = cpd204.pdb
REMARK  8 active torsions:
REMARK  status: ('A' for Active; 'I' for Inactive)
REMARK    1  A    between atoms: C_1  and  C_2
REMARK    2  A    between atoms: C_2  and  C_4
REMARK    3  A    between atoms: C_8  and  C_9
REMARK    4  A    between atoms: C_9  and  S_10
REMARK    5  A    between atoms: S_10  and  C_11
REMARK    6  A    between atoms: C_11  and  C_12
REMARK    7  A    between atoms: C_13  and  C_14
REMARK    8  A    between atoms: C_23  and  N_24
REMARK                            x       y       z     vdW  Elec       q    Type
REMARK                         _______ _______ _______ _____ _____    ______ ____
ROOT
ATOM      1  C   UNL A   1      37.046 -36.997 -30.216  0.00  0.00    +0.005 A 
ATOM      2  C   UNL A   1      37.883 -37.879 -29.526  0.00  0.00    +0.045 A 
ATOM      3  C   UNL A   1      37.349 -38.999 -28.677  0.00  0.00    -0.022 C 
ATOM      4  N   UNL A   1      39.236 -37.807 -29.581  0.00  0.00    -0.251 NA
ATOM      5  C   UNL A   1      39.813 -36.854 -30.321  0.00  0.00    +0.076 A 
ATOM      6  C   UNL A   1      41.203 -36.824 -30.373  0.00  0.00    -0.035 A 
ATOM      7  C   UNL A   1      41.900 -35.867 -31.111  0.00  0.00    -0.057 A 
ATOM      8  C   UNL A   1      41.191 -34.909 -31.816  0.00  0.00    -0.026 A 
ATOM      9  C   UNL A   1      39.800 -34.926 -31.772  0.00  0.00    +0.134 A 
ATOM     10  F   UNL A   1      39.149 -33.961 -32.445  0.00  0.00    -0.205 F 
ATOM     11  C   UNL A   1      39.076 -35.892 -31.035  0.00  0.00    +0.056 A 
ATOM     12  C   UNL A   1      37.658 -35.949 -30.937  0.00  0.00    +0.042 A 
ENDROOT
BRANCH  12  13
ATOM     13  N   UNL A   1      36.850 -35.072 -31.706  0.00  0.00    -0.357 N 
ATOM     14  H   UNL A   1      35.995 -35.390 -32.079  0.00  0.00    +0.000 HD
ATOM     15  H   UNL A   1      37.143 -34.146 -31.867  0.00  0.00    +0.000 HD
ENDBRANCH  12  13
BRANCH   1  16
ATOM     16  C   UNL A   1      35.542 -37.145 -30.176  0.00  0.00    +0.023 C 
BRANCH  16  17
ATOM     17  S   UNL A   1      34.825 -36.197 -28.791  0.00  0.00    -0.151 S 
BRANCH  17  18
ATOM     18  C   UNL A   1      33.287 -35.634 -29.580  0.00  0.00    +0.019 C 
BRANCH  18  23
ATOM     19  C   UNL A   1      31.833 -32.182 -30.337  0.00  0.00    +0.017 A 
ATOM     20  C   UNL A   1      32.968 -31.371 -30.250  0.00  0.00    -0.051 A 
ATOM     21  C   UNL A   1      34.206 -31.937 -29.939  0.00  0.00    -0.061 A 
ATOM     22  C   UNL A   1      34.315 -33.310 -29.715  0.00  0.00    -0.058 A 
ATOM     23  C   UNL A   1      33.185 -34.138 -29.770  0.00  0.00    -0.037 A 
ATOM     24  C   UNL A   1      31.946 -33.559 -30.090  0.00  0.00    -0.047 A 
BRANCH  19  26
ATOM     25  C   UNL A   1      29.342 -31.827 -29.744  0.00  0.00    -0.001 C 
ATOM     26  C   UNL A   1      30.491 -31.634 -30.699  0.00  0.00    +0.160 C 
ATOM     27  O   UNL A   1      30.342 -31.037 -31.763  0.00  0.00    -0.292 OA
ENDBRANCH  19  26
ENDBRANCH  18  23
ENDBRANCH  17  18
ENDBRANCH  16  17
ENDBRANCH   1  16
TORSDOF 6
ENDMDL
MODEL 7
REMARK VINA RESULT:    -7.296      3.012      4.216
REMARK INTER + INTRA:         -10.650
REMARK INTER:                 -10.038
REMARK INTRA:                  -0.613
REMARK UNBOUND:                -1.009
REMARK  Name = cpd204.pdb
REMARK  8 active torsions:
REMARK  status: ('A' for Active; 'I' for Inactive)
REMARK    1  A    between atoms: C_1  and  C_2
REMARK    2  A    between atoms: C_2  and  C_4
REMARK    3  A    between atoms: C_8  and  C_9
REMARK    4  A    between atoms: C_9  and  S_10
REMARK    5  A    between atoms: S_10  and  C_11
REMARK    6  A    between atoms: C_11  and  C_12
REMARK    7  A    between atoms: C_13  and  C_14
REMARK    8  A    between atoms: C_23  and  N_24
REMARK                            x       y       z     vdW  Elec       q    Type
REMARK                         _______ _______ _______ _____ _____    ______ ____
ROOT
ATOM      1  C   UNL A   1      37.349 -36.651 -29.546  0.00  0.00    +0.005 A 
ATOM      2  C   UNL A   1      36.927 -35.832 -30.598  0.00  0.00    +0.045 A 
ATOM      3  C   UNL A   1      35.570 -35.187 -30.622  0.00  0.00    -0.022 C 
ATOM      4  N   UNL A   1      37.710 -35.542 -31.666  0.00  0.00    -0.251 NA
ATOM      5  C   UNL A   1      38.943 -36.056 -31.735  0.00  0.00    +0.076 A 
ATOM      6  C   UNL A   1      39.727 -35.719 -32.835  0.00  0.00    -0.035 A 
ATOM      7  C   UNL A   1      41.023 -36.206 -33.002  0.00  0.00    -0.057 A 
ATOM      8  C   UNL A   1      41.554 -37.058 -32.048  0.00  0.00    -0.026 A 
ATOM      9  C   UNL A   1      40.780 -37.405 -30.944  0.00  0.00    +0.134 A 
ATOM     10  F   UNL A   1      41.319 -38.258 -30.055  0.00  0.00    -0.205 F 
ATOM     11  C   UNL A   1      39.467 -36.915 -30.754  0.00  0.00    +0.056 A 
ATOM     12  C   UNL A   1      38.623 -37.249 -29.658  0.00  0.00    +0.042 A 
ENDROOT
BRANCH  12  13
ATOM     13  N   UNL A   1      39.118 -38.031 -28.583  0.00  0.00    -0.357 N 
ATOM     14  H   UNL A   1      39.944 -38.556 -28.695  0.00  0.00    +0.000 HD
ATOM     15  H   UNL A   1      38.636 -38.050 -27.725  0.00  0.00    +0.000 HD
ENDBRANCH  12  13
BRANCH   1  16
ATOM     16  C   UNL A   1      36.468 -36.904 -28.343  0.00  0.00    +0.023 C 
BRANCH  16  17
ATOM     17  S   UNL A   1      35.624 -38.517 -28.476  0.00  0.00    -0.151 S 
BRANCH  17  18
ATOM     18  C   UNL A   1      33.900 -37.945 -28.554  0.00  0.00    +0.019 C 
BRANCH  18  23
ATOM     19  C   UNL A   1      33.179 -37.146 -24.887  0.00  0.00    +0.017 A 
ATOM     20  C   UNL A   1      32.438 -35.965 -24.996  0.00  0.00    -0.051 A 
ATOM     21  C   UNL A   1      32.176 -35.421 -26.254  0.00  0.00    -0.061 A 
ATOM     22  C   UNL A   1      32.650 -36.050 -27.406  0.00  0.00    -0.058 A 
ATOM     23  C   UNL A   1      33.418 -37.220 -27.320  0.00  0.00    -0.037 A 
ATOM     24  C   UNL A   1      33.671 -37.762 -26.049  0.00  0.00    -0.047 A 
BRANCH  19  26
ATOM     25  C   UNL A   1      33.462 -39.294 -23.478  0.00  0.00    -0.001 C 
ATOM     26  C   UNL A   1      33.460 -37.790 -23.570  0.00  0.00    +0.160 C 
ATOM     27  O   UNL A   1      33.685 -37.091 -22.584  0.00  0.00    -0.292 OA
ENDBRANCH  19  26
ENDBRANCH  18  23
ENDBRANCH  17  18
ENDBRANCH  16  17
ENDBRANCH   1  16
TORSDOF 6
ENDMDL
MODEL 8
REMARK VINA RESULT:    -7.281      1.275      1.849
REMARK INTER + INTRA:         -10.631
REMARK INTER:                  -9.447
REMARK INTRA:                  -1.184
REMARK UNBOUND:                -1.009
REMARK  Name = cpd204.pdb
REMARK  8 active torsions:
REMARK  status: ('A' for Active; 'I' for Inactive)
REMARK    1  A    between atoms: C_1  and  C_2
REMARK    2  A    between atoms: C_2  and  C_4
REMARK    3  A    between atoms: C_8  and  C_9
REMARK    4  A    between atoms: C_9  and  S_10
REMARK    5  A    between atoms: S_10  and  C_11
REMARK    6  A    between atoms: C_11  and  C_12
REMARK    7  A    between atoms: C_13  and  C_14
REMARK    8  A    between atoms: C_23  and  N_24
REMARK                            x       y       z     vdW  Elec       q    Type
REMARK                         _______ _______ _______ _____ _____    ______ ____
ROOT
ATOM      1  C   UNL A   1      35.270 -35.866 -29.993  0.00  0.00    +0.005 A 
ATOM      2  C   UNL A   1      35.188 -36.371 -28.690  0.00  0.00    +0.045 A 
ATOM      3  C   UNL A   1      33.944 -36.251 -27.857  0.00  0.00    -0.022 C 
ATOM      4  N   UNL A   1      36.213 -37.021 -28.087  0.00  0.00    -0.251 NA
ATOM      5  C   UNL A   1      37.363 -37.194 -28.750  0.00  0.00    +0.076 A 
ATOM      6  C   UNL A   1      38.385 -37.885 -28.108  0.00  0.00    -0.035 A 
ATOM      7  C   UNL A   1      39.623 -38.113 -28.711  0.00  0.00    -0.057 A 
ATOM      8  C   UNL A   1      39.849 -37.634 -29.990  0.00  0.00    -0.026 A 
ATOM      9  C   UNL A   1      38.836 -36.940 -30.643  0.00  0.00    +0.134 A 
ATOM     10  F   UNL A   1      39.105 -36.465 -31.872  0.00  0.00    -0.205 F 
ATOM     11  C   UNL A   1      37.573 -36.705 -30.051  0.00  0.00    +0.056 A 
ATOM     12  C   UNL A   1      36.507 -35.986 -30.661  0.00  0.00    +0.042 A 
ENDROOT
BRANCH  12  13
ATOM     13  N   UNL A   1      36.613 -35.549 -32.006  0.00  0.00    -0.357 N 
ATOM     14  H   UNL A   1      35.821 -35.559 -32.591  0.00  0.00    +0.000 HD
ATOM     15  H   UNL A   1      37.479 -35.236 -32.355  0.00  0.00    +0.000 HD
ENDBRANCH  12  13
BRANCH   1  16
ATOM     16  C   UNL A   1      34.085 -35.198 -30.653  0.00  0.00    +0.023 C 
BRANCH  16  17
ATOM     17  S   UNL A   1      33.402 -36.241 -31.986  0.00  0.00    -0.151 S 
BRANCH  17  18
ATOM     18  C   UNL A   1      32.781 -37.629 -30.991  0.00  0.00    +0.019 C 
BRANCH  18  23
ATOM     19  C   UNL A   1      34.747 -40.461 -29.341  0.00  0.00    +0.017 A 
ATOM     20  C   UNL A   1      35.663 -40.791 -30.344  0.00  0.00    -0.051 A 
ATOM     21  C   UNL A   1      35.644 -40.104 -31.559  0.00  0.00    -0.061 A 
ATOM     22  C   UNL A   1      34.713 -39.087 -31.777  0.00  0.00    -0.058 A 
ATOM     23  C   UNL A   1      33.767 -38.758 -30.796  0.00  0.00    -0.037 A 
ATOM     24  C   UNL A   1      33.799 -39.452 -29.576  0.00  0.00    -0.047 A 
BRANCH  19  26
ATOM     25  C   UNL A   1      34.938 -42.634 -27.955  0.00  0.00    -0.001 C 
ATOM     26  C   UNL A   1      34.745 -41.141 -28.012  0.00  0.00    +0.160 C 
ATOM     27  O   UNL A   1      34.589 -40.479 -26.988  0.00  0.00    -0.292 OA
ENDBRANCH  19  26
ENDBRANCH  18  23
ENDBRANCH  17  18
ENDBRANCH  16  17
ENDBRANCH   1  16
TORSDOF 6
ENDMDL
MODEL 9
REMARK VINA RESULT:    -7.214      2.615      3.350
REMARK INTER + INTRA:         -10.542
REMARK INTER:                  -9.667
REMARK INTRA:                  -0.875
REMARK UNBOUND:                -1.009
REMARK  Name = cpd204.pdb
REMARK  8 active torsions:
REMARK  status: ('A' for Active; 'I' for Inactive)
REMARK    1  A    between atoms: C_1  and  C_2
REMARK    2  A    between atoms: C_2  and  C_4
REMARK    3  A    between atoms: C_8  and  C_9
REMARK    4  A    between atoms: C_9  and  S_10
REMARK    5  A    between atoms: S_10  and  C_11
REMARK    6  A    between atoms: C_11  and  C_12
REMARK    7  A    between atoms: C_13  and  C_14
REMARK    8  A    between atoms: C_23  and  N_24
REMARK                            x       y       z     vdW  Elec       q    Type
REMARK                         _______ _______ _______ _____ _____    ______ ____
ROOT
ATOM      1  C   UNL A   1      35.580 -35.962 -29.669  0.00  0.00    +0.005 A 
ATOM      2  C   UNL A   1      36.011 -36.758 -28.602  0.00  0.00    +0.045 A 
ATOM      3  C   UNL A   1      35.115 -37.118 -27.452  0.00  0.00    -0.022 C 
ATOM      4  N   UNL A   1      37.260 -37.281 -28.531  0.00  0.00    -0.251 NA
ATOM      5  C   UNL A   1      38.133 -37.033 -29.514  0.00  0.00    +0.076 A 
ATOM      6  C   UNL A   1      39.398 -37.605 -29.419  0.00  0.00    -0.035 A 
ATOM      7  C   UNL A   1      40.382 -37.402 -30.388  0.00  0.00    -0.057 A 
ATOM      8  C   UNL A   1      40.097 -36.603 -31.483  0.00  0.00    -0.026 A 
ATOM      9  C   UNL A   1      38.836 -36.023 -31.590  0.00  0.00    +0.134 A 
ATOM     10  F   UNL A   1      38.609 -35.230 -32.651  0.00  0.00    -0.205 F 
ATOM     11  C   UNL A   1      37.825 -36.223 -30.621  0.00  0.00    +0.056 A 
ATOM     12  C   UNL A   1      36.527 -35.643 -30.666  0.00  0.00    +0.042 A 
ENDROOT
BRANCH  12  13
ATOM     13  N   UNL A   1      36.114 -34.895 -31.799  0.00  0.00    -0.357 N 
ATOM     14  H   UNL A   1      36.163 -35.295 -32.698  0.00  0.00    +0.000 HD
ATOM     15  H   UNL A   1      35.777 -33.977 -31.686  0.00  0.00    +0.000 HD
ENDBRANCH  12  13
BRANCH   1  16
ATOM     16  C   UNL A   1      34.161 -35.445 -29.741  0.00  0.00    +0.023 C 
BRANCH  16  17
ATOM     17  S   UNL A   1      33.242 -36.239 -31.103  0.00  0.00    -0.151 S 
BRANCH  17  18
ATOM     18  C   UNL A   1      33.079 -37.914 -30.417  0.00  0.00    +0.019 C 
BRANCH  18  23
ATOM     19  C   UNL A   1      34.014 -40.465 -33.104  0.00  0.00    +0.017 A 
ATOM     20  C   UNL A   1      35.157 -41.052 -32.552  0.00  0.00    -0.051 A 
ATOM     21  C   UNL A   1      35.632 -40.620 -31.313  0.00  0.00    -0.061 A 
ATOM     22  C   UNL A   1      34.971 -39.604 -30.621  0.00  0.00    -0.058 A 
ATOM     23  C   UNL A   1      33.839 -38.982 -31.168  0.00  0.00    -0.037 A 
ATOM     24  C   UNL A   1      33.367 -39.429 -32.413  0.00  0.00    -0.047 A 
BRANCH  19  26
ATOM     25  C   UNL A   1      31.983 -40.669 -34.689  0.00  0.00    -0.001 C 
ATOM     26  C   UNL A   1      33.444 -40.912 -34.410  0.00  0.00    +0.160 C 
ATOM     27  O   UNL A   1      34.167 -41.466 -35.235  0.00  0.00    -0.292 OA
ENDBRANCH  19  26
ENDBRANCH  18  23
ENDBRANCH  17  18
ENDBRANCH  16  17
ENDBRANCH   1  16
TORSDOF 6
ENDMDL
MODEL 10
REMARK VINA RESULT:    -7.119     16.955     19.699
REMARK INTER + INTRA:         -10.417
REMARK INTER:                  -9.815
REMARK INTRA:                  -0.602
REMARK UNBOUND:                -1.009
REMARK  Name = cpd204.pdb
REMARK  8 active torsions:
REMARK  status: ('A' for Active; 'I' for Inactive)
REMARK    1  A    between atoms: C_1  and  C_2
REMARK    2  A    between atoms: C_2  and  C_4
REMARK    3  A    between atoms: C_8  and  C_9
REMARK    4  A    between atoms: C_9  and  S_10
REMARK    5  A    between atoms: S_10  and  C_11
REMARK    6  A    between atoms: C_11  and  C_12
REMARK    7  A    between atoms: C_13  and  C_14
REMARK    8  A    between atoms: C_23  and  N_24
REMARK                            x       y       z     vdW  Elec       q    Type
REMARK                         _______ _______ _______ _____ _____    ______ ____
ROOT
ATOM      1  C   UNL A   1      43.873 -20.771 -39.342  0.00  0.00    +0.005 A 
ATOM      2  C   UNL A   1      44.908 -20.667 -38.407  0.00  0.00    +0.045 A 
ATOM      3  C   UNL A   1      44.706 -20.061 -37.047  0.00  0.00    -0.022 C 
ATOM      4  N   UNL A   1      46.163 -21.121 -38.644  0.00  0.00    -0.251 NA
ATOM      5  C   UNL A   1      46.444 -21.692 -39.821  0.00  0.00    +0.076 A 
ATOM      6  C   UNL A   1      47.737 -22.165 -40.021  0.00  0.00    -0.035 A 
ATOM      7  C   UNL A   1      48.132 -22.771 -41.214  0.00  0.00    -0.057 A 
ATOM      8  C   UNL A   1      47.211 -22.905 -42.240  0.00  0.00    -0.026 A 
ATOM      9  C   UNL A   1      45.915 -22.435 -42.054  0.00  0.00    +0.134 A 
ATOM     10  F   UNL A   1      45.060 -22.557 -43.085  0.00  0.00    -0.205 F 
ATOM     11  C   UNL A   1      45.495 -21.824 -40.849  0.00  0.00    +0.056 A 
ATOM     12  C   UNL A   1      44.192 -21.307 -40.608  0.00  0.00    +0.042 A 
ENDROOT
BRANCH  12  13
ATOM     13  N   UNL A   1      43.158 -21.493 -41.563  0.00  0.00    -0.357 N 
ATOM     14  H   UNL A   1      43.382 -21.745 -42.488  0.00  0.00    +0.000 HD
ATOM     15  H   UNL A   1      42.218 -21.370 -41.299  0.00  0.00    +0.000 HD
ENDBRANCH  12  13
BRANCH   1  16
ATOM     16  C   UNL A   1      42.471 -20.307 -39.019  0.00  0.00    +0.023 C 
BRANCH  16  17
ATOM     17  S   UNL A   1      41.432 -21.699 -38.459  0.00  0.00    -0.151 S 
BRANCH  17  18
ATOM     18  C   UNL A   1      40.364 -20.818 -37.280  0.00  0.00    +0.019 C 
BRANCH  18  23
ATOM     19  C   UNL A   1      40.285 -22.442 -33.821  0.00  0.00    +0.017 A 
ATOM     20  C   UNL A   1      41.107 -21.582 -33.086  0.00  0.00    -0.051 A 
ATOM     21  C   UNL A   1      41.694 -20.479 -33.708  0.00  0.00    -0.061 A 
ATOM     22  C   UNL A   1      41.465 -20.230 -35.062  0.00  0.00    -0.058 A 
ATOM     23  C   UNL A   1      40.666 -21.094 -35.825  0.00  0.00    -0.037 A 
ATOM     24  C   UNL A   1      40.076 -22.197 -35.187  0.00  0.00    -0.047 A 
BRANCH  19  26
ATOM     25  C   UNL A   1      38.311 -24.110 -33.792  0.00  0.00    -0.001 C 
ATOM     26  C   UNL A   1      39.605 -23.616 -33.198  0.00  0.00    +0.160 C 
ATOM     27  O   UNL A   1      40.105 -24.162 -32.217  0.00  0.00    -0.292 OA
ENDBRANCH  19  26
ENDBRANCH  18  23
ENDBRANCH  17  18
ENDBRANCH  16  17
ENDBRANCH   1  16
TORSDOF 6
ENDMDL
MODEL 11
REMARK VINA RESULT:    -7.030      3.663      5.586
REMARK INTER + INTRA:         -10.300
REMARK INTER:                  -9.960
REMARK INTRA:                  -0.339
REMARK UNBOUND:                -1.009
REMARK  Name = cpd204.pdb
REMARK  8 active torsions:
REMARK  status: ('A' for Active; 'I' for Inactive)
REMARK    1  A    between atoms: C_1  and  C_2
REMARK    2  A    between atoms: C_2  and  C_4
REMARK    3  A    between atoms: C_8  and  C_9
REMARK    4  A    between atoms: C_9  and  S_10
REMARK    5  A    between atoms: S_10  and  C_11
REMARK    6  A    between atoms: C_11  and  C_12
REMARK    7  A    between atoms: C_13  and  C_14
REMARK    8  A    between atoms: C_23  and  N_24
REMARK                            x       y       z     vdW  Elec       q    Type
REMARK                         _______ _______ _______ _____ _____    ______ ____
ROOT
ATOM      1  C   UNL A   1      36.997 -36.614 -30.060  0.00  0.00    +0.005 A 
ATOM      2  C   UNL A   1      37.522 -37.284 -28.950  0.00  0.00    +0.045 A 
ATOM      3  C   UNL A   1      36.684 -37.645 -27.757  0.00  0.00    -0.022 C 
ATOM      4  N   UNL A   1      38.818 -37.674 -28.870  0.00  0.00    -0.251 NA
ATOM      5  C   UNL A   1      39.647 -37.412 -29.888  0.00  0.00    +0.076 A 
ATOM      6  C   UNL A   1      40.964 -37.848 -29.780  0.00  0.00    -0.035 A 
ATOM      7  C   UNL A   1      41.907 -37.620 -30.783  0.00  0.00    -0.057 A 
ATOM      8  C   UNL A   1      41.527 -36.935 -31.925  0.00  0.00    -0.026 A 
ATOM      9  C   UNL A   1      40.213 -36.493 -32.045  0.00  0.00    +0.134 A 
ATOM     10  F   UNL A   1      39.891 -35.805 -33.155  0.00  0.00    -0.205 F 
ATOM     11  C   UNL A   1      39.241 -36.720 -31.042  0.00  0.00    +0.056 A 
ATOM     12  C   UNL A   1      37.891 -36.276 -31.099  0.00  0.00    +0.042 A 
ENDROOT
BRANCH  12  13
ATOM     13  N   UNL A   1      37.388 -35.658 -32.273  0.00  0.00    -0.357 N 
ATOM     14  H   UNL A   1      37.149 -36.207 -33.055  0.00  0.00    +0.000 HD
ATOM     15  H   UNL A   1      37.277 -34.680 -32.305  0.00  0.00    +0.000 HD
ENDBRANCH  12  13
BRANCH   1  16
ATOM     16  C   UNL A   1      35.532 -36.247 -30.137  0.00  0.00    +0.023 C 
BRANCH  16  17
ATOM     17  S   UNL A   1      35.282 -34.470 -29.803  0.00  0.00    -0.151 S 
BRANCH  17  18
ATOM     18  C   UNL A   1      33.572 -34.520 -29.190  0.00  0.00    +0.019 C 
BRANCH  18  23
ATOM     19  C   UNL A   1      30.868 -33.998 -31.840  0.00  0.00    +0.017 A 
ATOM     20  C   UNL A   1      30.745 -32.605 -31.847  0.00  0.00    -0.051 A 
ATOM     21  C   UNL A   1      31.530 -31.832 -30.991  0.00  0.00    -0.061 A 
ATOM     22  C   UNL A   1      32.439 -32.442 -30.126  0.00  0.00    -0.058 A 
ATOM     23  C   UNL A   1      32.560 -33.839 -30.082  0.00  0.00    -0.037 A 
ATOM     24  C   UNL A   1      31.769 -34.606 -30.952  0.00  0.00    -0.047 A 
BRANCH  19  26
ATOM     25  C   UNL A   1      30.772 -36.007 -33.462  0.00  0.00    -0.001 C 
ATOM     26  C   UNL A   1      30.078 -34.870 -32.758  0.00  0.00    +0.160 C 
ATOM     27  O   UNL A   1      28.880 -34.653 -32.926  0.00  0.00    -0.292 OA
ENDBRANCH  19  26
ENDBRANCH  18  23
ENDBRANCH  17  18
ENDBRANCH  16  17
ENDBRANCH   1  16
TORSDOF 6
ENDMDL
MODEL 12
REMARK VINA RESULT:    -6.622     17.495     20.357
REMARK INTER + INTRA:          -9.759
REMARK INTER:                  -9.072
REMARK INTRA:                  -0.688
REMARK UNBOUND:                -1.009
REMARK  Name = cpd204.pdb
REMARK  8 active torsions:
REMARK  status: ('A' for Active; 'I' for Inactive)
REMARK    1  A    between atoms: C_1  and  C_2
REMARK    2  A    between atoms: C_2  and  C_4
REMARK    3  A    between atoms: C_8  and  C_9
REMARK    4  A    between atoms: C_9  and  S_10
REMARK    5  A    between atoms: S_10  and  C_11
REMARK    6  A    between atoms: C_11  and  C_12
REMARK    7  A    between atoms: C_13  and  C_14
REMARK    8  A    between atoms: C_23  and  N_24
REMARK                            x       y       z     vdW  Elec       q    Type
REMARK                         _______ _______ _______ _____ _____    ______ ____
ROOT
ATOM      1  C   UNL A   1      45.137 -19.852 -38.866  0.00  0.00    +0.005 A 
ATOM      2  C   UNL A   1      44.147 -19.727 -39.847  0.00  0.00    +0.045 A 
ATOM      3  C   UNL A   1      42.992 -18.776 -39.709  0.00  0.00    -0.022 C 
ATOM      4  N   UNL A   1      44.161 -20.435 -41.003  0.00  0.00    -0.251 NA
ATOM      5  C   UNL A   1      45.156 -21.301 -41.231  0.00  0.00    +0.076 A 
ATOM      6  C   UNL A   1      45.150 -21.994 -42.437  0.00  0.00    -0.035 A 
ATOM      7  C   UNL A   1      46.139 -22.922 -42.768  0.00  0.00    -0.057 A 
ATOM      8  C   UNL A   1      47.162 -23.169 -41.867  0.00  0.00    -0.026 A 
ATOM      9  C   UNL A   1      47.179 -22.483 -40.656  0.00  0.00    +0.134 A 
ATOM     10  F   UNL A   1      48.171 -22.773 -39.796  0.00  0.00    -0.205 F 
ATOM     11  C   UNL A   1      46.189 -21.534 -40.306  0.00  0.00    +0.056 A 
ATOM     12  C   UNL A   1      46.144 -20.819 -39.078  0.00  0.00    +0.042 A 
ENDROOT
BRANCH  12  13
ATOM     13  N   UNL A   1      47.203 -20.931 -38.141  0.00  0.00    -0.357 N 
ATOM     14  H   UNL A   1      47.985 -20.336 -38.208  0.00  0.00    +0.000 HD
ATOM     15  H   UNL A   1      47.157 -21.605 -37.425  0.00  0.00    +0.000 HD
ENDBRANCH  12  13
BRANCH   1  16
ATOM     16  C   UNL A   1      45.117 -19.002 -37.617  0.00  0.00    +0.023 C 
BRANCH  16  17
ATOM     17  S   UNL A   1      44.674 -19.997 -36.152  0.00  0.00    -0.151 S 
BRANCH  17  18
ATOM     18  C   UNL A   1      42.928 -19.517 -35.983  0.00  0.00    +0.019 C 
BRANCH  18  23
ATOM     19  C   UNL A   1      40.532 -22.320 -34.981  0.00  0.00    +0.017 A 
ATOM     20  C   UNL A   1      40.200 -22.867 -36.224  0.00  0.00    -0.051 A 
ATOM     21  C   UNL A   1      40.745 -22.327 -37.390  0.00  0.00    -0.061 A 
ATOM     22  C   UNL A   1      41.620 -21.242 -37.321  0.00  0.00    -0.058 A 
ATOM     23  C   UNL A   1      41.946 -20.661 -36.087  0.00  0.00    -0.037 A 
ATOM     24  C   UNL A   1      41.396 -21.216 -34.921  0.00  0.00    -0.047 A 
BRANCH  19  26
ATOM     25  C   UNL A   1      38.583 -23.377 -33.652  0.00  0.00    -0.001 C 
ATOM     26  C   UNL A   1      40.005 -22.880 -33.701  0.00  0.00    +0.160 C 
ATOM     27  O   UNL A   1      40.732 -22.929 -32.711  0.00  0.00    -0.292 OA
ENDBRANCH  19  26
ENDBRANCH  18  23
ENDBRANCH  17  18
ENDBRANCH  16  17
ENDBRANCH   1  16
TORSDOF 6
ENDMDL
MODEL 13
REMARK VINA RESULT:    -6.591     18.244     21.027
REMARK INTER + INTRA:          -9.719
REMARK INTER:                  -9.129
REMARK INTRA:                  -0.590
REMARK UNBOUND:                -1.009
REMARK  Name = cpd204.pdb
REMARK  8 active torsions:
REMARK  status: ('A' for Active; 'I' for Inactive)
REMARK    1  A    between atoms: C_1  and  C_2
REMARK    2  A    between atoms: C_2  and  C_4
REMARK    3  A    between atoms: C_8  and  C_9
REMARK    4  A    between atoms: C_9  and  S_10
REMARK    5  A    between atoms: S_10  and  C_11
REMARK    6  A    between atoms: C_11  and  C_12
REMARK    7  A    between atoms: C_13  and  C_14
REMARK    8  A    between atoms: C_23  and  N_24
REMARK                            x       y       z     vdW  Elec       q    Type
REMARK                         _______ _______ _______ _____ _____    ______ ____
ROOT
ATOM      1  C   UNL A   1      41.739 -20.986 -37.132  0.00  0.00    +0.005 A 
ATOM      2  C   UNL A   1      40.460 -21.097 -37.689  0.00  0.00    +0.045 A 
ATOM      3  C   UNL A   1      40.222 -21.067 -39.172  0.00  0.00    -0.022 C 
ATOM      4  N   UNL A   1      39.342 -21.260 -36.939  0.00  0.00    -0.251 NA
ATOM      5  C   UNL A   1      39.447 -21.314 -35.606  0.00  0.00    +0.076 A 
ATOM      6  C   UNL A   1      38.281 -21.504 -34.871  0.00  0.00    -0.035 A 
ATOM      7  C   UNL A   1      38.283 -21.569 -33.477  0.00  0.00    -0.057 A 
ATOM      8  C   UNL A   1      39.482 -21.437 -32.796  0.00  0.00    -0.026 A 
ATOM      9  C   UNL A   1      40.655 -21.245 -33.519  0.00  0.00    +0.134 A 
ATOM     10  F   UNL A   1      41.794 -21.091 -32.821  0.00  0.00    -0.205 F 
ATOM     11  C   UNL A   1      40.674 -21.183 -34.933  0.00  0.00    +0.056 A 
ATOM     12  C   UNL A   1      41.836 -20.970 -35.724  0.00  0.00    +0.042 A 
ENDROOT
BRANCH  12  13
ATOM     13  N   UNL A   1      43.119 -20.927 -35.119  0.00  0.00    -0.357 N 
ATOM     14  H   UNL A   1      43.870 -21.420 -35.522  0.00  0.00    +0.000 HD
ATOM     15  H   UNL A   1      43.257 -20.403 -34.297  0.00  0.00    +0.000 HD
ENDBRANCH  12  13
BRANCH   1  16
ATOM     16  C   UNL A   1      42.968 -20.864 -38.004  0.00  0.00    +0.023 C 
BRANCH  16  17
ATOM     17  S   UNL A   1      43.372 -19.114 -38.328  0.00  0.00    -0.151 S 
BRANCH  17  18
ATOM     18  C   UNL A   1      44.970 -19.328 -39.170  0.00  0.00    +0.019 C 
BRANCH  18  23
ATOM     19  C   UNL A   1      45.901 -22.071 -41.663  0.00  0.00    +0.017 A 
ATOM     20  C   UNL A   1      44.967 -21.856 -42.681  0.00  0.00    -0.051 A 
ATOM     21  C   UNL A   1      44.030 -20.829 -42.562  0.00  0.00    -0.061 A 
ATOM     22  C   UNL A   1      44.020 -20.014 -41.429  0.00  0.00    -0.058 A 
ATOM     23  C   UNL A   1      44.929 -20.228 -40.383  0.00  0.00    -0.037 A 
ATOM     24  C   UNL A   1      45.872 -21.261 -40.517  0.00  0.00    -0.047 A 
BRANCH  19  26
ATOM     25  C   UNL A   1      48.092 -23.116 -40.775  0.00  0.00    -0.001 C 
ATOM     26  C   UNL A   1      46.946 -23.133 -41.754  0.00  0.00    +0.160 C 
ATOM     27  O   UNL A   1      46.860 -24.002 -42.618  0.00  0.00    -0.292 OA
ENDBRANCH  19  26
ENDBRANCH  18  23
ENDBRANCH  17  18
ENDBRANCH  16  17
ENDBRANCH   1  16
TORSDOF 6
ENDMDL
MODEL 14
REMARK VINA RESULT:    -6.532     18.547     21.730
REMARK INTER + INTRA:          -9.641
REMARK INTER:                  -8.830
REMARK INTRA:                  -0.811
REMARK UNBOUND:                -1.009
REMARK  Name = cpd204.pdb
REMARK  8 active torsions:
REMARK  status: ('A' for Active; 'I' for Inactive)
REMARK    1  A    between atoms: C_1  and  C_2
REMARK    2  A    between atoms: C_2  and  C_4
REMARK    3  A    between atoms: C_8  and  C_9
REMARK    4  A    between atoms: C_9  and  S_10
REMARK    5  A    between atoms: S_10  and  C_11
REMARK    6  A    between atoms: C_11  and  C_12
REMARK    7  A    between atoms: C_13  and  C_14
REMARK    8  A    between atoms: C_23  and  N_24
REMARK                            x       y       z     vdW  Elec       q    Type
REMARK                         _______ _______ _______ _____ _____    ______ ____
ROOT
ATOM      1  C   UNL A   1      44.193 -20.023 -36.845  0.00  0.00    +0.005 A 
ATOM      2  C   UNL A   1      43.925 -19.638 -35.527  0.00  0.00    +0.045 A 
ATOM      3  C   UNL A   1      44.836 -18.729 -34.753  0.00  0.00    -0.022 C 
ATOM      4  N   UNL A   1      42.817 -20.037 -34.854  0.00  0.00    -0.251 NA
ATOM      5  C   UNL A   1      41.933 -20.837 -35.460  0.00  0.00    +0.076 A 
ATOM      6  C   UNL A   1      40.798 -21.208 -34.746  0.00  0.00    -0.035 A 
ATOM      7  C   UNL A   1      39.819 -22.044 -35.286  0.00  0.00    -0.057 A 
ATOM      8  C   UNL A   1      39.979 -22.527 -36.574  0.00  0.00    -0.026 A 
ATOM      9  C   UNL A   1      41.110 -22.165 -37.299  0.00  0.00    +0.134 A 
ATOM     10  F   UNL A   1      41.244 -22.678 -38.534  0.00  0.00    -0.205 F 
ATOM     11  C   UNL A   1      42.110 -21.314 -36.771  0.00  0.00    +0.056 A 
ATOM     12  C   UNL A   1      43.294 -20.925 -37.455  0.00  0.00    +0.042 A 
ENDROOT
BRANCH  12  13
ATOM     13  N   UNL A   1      43.492 -21.288 -38.812  0.00  0.00    -0.357 N 
ATOM     14  H   UNL A   1      44.114 -22.016 -39.042  0.00  0.00    +0.000 HD
ATOM     15  H   UNL A   1      43.006 -20.812 -39.524  0.00  0.00    +0.000 HD
ENDBRANCH  12  13
BRANCH   1  16
ATOM     16  C   UNL A   1      45.409 -19.509 -37.583  0.00  0.00    +0.023 C 
BRANCH  16  17
ATOM     17  S   UNL A   1      44.998 -18.038 -38.582  0.00  0.00    -0.151 S 
BRANCH  17  18
ATOM     18  C   UNL A   1      46.131 -18.301 -39.979  0.00  0.00    +0.019 C 
BRANCH  18  23
ATOM     19  C   UNL A   1      46.084 -21.628 -41.857  0.00  0.00    +0.017 A 
ATOM     20  C   UNL A   1      45.050 -21.421 -42.775  0.00  0.00    -0.051 A 
ATOM     21  C   UNL A   1      44.361 -20.207 -42.785  0.00  0.00    -0.061 A 
ATOM     22  C   UNL A   1      44.699 -19.199 -41.881  0.00  0.00    -0.058 A 
ATOM     23  C   UNL A   1      45.714 -19.395 -40.934  0.00  0.00    -0.037 A 
ATOM     24  C   UNL A   1      46.405 -20.618 -40.938  0.00  0.00    -0.047 A 
BRANCH  19  26
ATOM     25  C   UNL A   1      47.935 -23.065 -40.769  0.00  0.00    -0.001 C 
ATOM     26  C   UNL A   1      46.876 -22.894 -41.826  0.00  0.00    +0.160 C 
ATOM     27  O   UNL A   1      46.655 -23.774 -42.655  0.00  0.00    -0.292 OA
ENDBRANCH  19  26
ENDBRANCH  18  23
ENDBRANCH  17  18
ENDBRANCH  16  17
ENDBRANCH   1  16
TORSDOF 6
ENDMDL
MODEL 15
REMARK VINA RESULT:    -6.531      3.314      6.510
REMARK INTER + INTRA:          -9.640
REMARK INTER:                  -9.030
REMARK INTRA:                  -0.609
REMARK UNBOUND:                -1.009
REMARK  Name = cpd204.pdb
REMARK  8 active torsions:
REMARK  status: ('A' for Active; 'I' for Inactive)
REMARK    1  A    between atoms: C_1  and  C_2
REMARK    2  A    between atoms: C_2  and  C_4
REMARK    3  A    between atoms: C_8  and  C_9
REMARK    4  A    between atoms: C_9  and  S_10
REMARK    5  A    between atoms: S_10  and  C_11
REMARK    6  A    between atoms: C_11  and  C_12
REMARK    7  A    between atoms: C_13  and  C_14
REMARK    8  A    between atoms: C_23  and  N_24
REMARK                            x       y       z     vdW  Elec       q    Type
REMARK                         _______ _______ _______ _____ _____    ______ ____
ROOT
ATOM      1  C   UNL A   1      34.137 -37.977 -28.852  0.00  0.00    +0.005 A 
ATOM      2  C   UNL A   1      33.999 -37.198 -27.699  0.00  0.00    +0.045 A 
ATOM      3  C   UNL A   1      34.261 -37.742 -26.323  0.00  0.00    -0.022 C 
ATOM      4  N   UNL A   1      33.639 -35.891 -27.731  0.00  0.00    -0.251 NA
ATOM      5  C   UNL A   1      33.398 -35.305 -28.910  0.00  0.00    +0.076 A 
ATOM      6  C   UNL A   1      33.053 -33.957 -28.906  0.00  0.00    -0.035 A 
ATOM      7  C   UNL A   1      32.776 -33.256 -30.081  0.00  0.00    -0.057 A 
ATOM      8  C   UNL A   1      32.841 -33.920 -31.295  0.00  0.00    -0.026 A 
ATOM      9  C   UNL A   1      33.183 -35.269 -31.312  0.00  0.00    +0.134 A 
ATOM     10  F   UNL A   1      33.206 -35.885 -32.507  0.00  0.00    -0.205 F 
ATOM     11  C   UNL A   1      33.474 -35.994 -30.133  0.00  0.00    +0.056 A 
ATOM     12  C   UNL A   1      33.810 -37.375 -30.087  0.00  0.00    +0.042 A 
ENDROOT
BRANCH  12  13
ATOM     13  N   UNL A   1      34.000 -38.108 -31.287  0.00  0.00    -0.357 N 
ATOM     14  H   UNL A   1      33.288 -38.132 -31.967  0.00  0.00    +0.000 HD
ATOM     15  H   UNL A   1      34.843 -38.593 -31.439  0.00  0.00    +0.000 HD
ENDBRANCH  12  13
BRANCH   1  16
ATOM     16  C   UNL A   1      34.597 -39.415 -28.779  0.00  0.00    +0.023 C 
BRANCH  16  17
ATOM     17  S   UNL A   1      36.349 -39.569 -29.267  0.00  0.00    -0.151 S 
BRANCH  17  18
ATOM     18  C   UNL A   1      36.947 -37.933 -28.751  0.00  0.00    +0.019 C 
BRANCH  18  23
ATOM     19  C   UNL A   1      39.910 -36.671 -30.808  0.00  0.00    +0.017 A 
ATOM     20  C   UNL A   1      39.293 -35.747 -31.656  0.00  0.00    -0.051 A 
ATOM     21  C   UNL A   1      37.916 -35.534 -31.569  0.00  0.00    -0.061 A 
ATOM     22  C   UNL A   1      37.152 -36.240 -30.640  0.00  0.00    -0.058 A 
ATOM     23  C   UNL A   1      37.745 -37.192 -29.798  0.00  0.00    -0.037 A 
ATOM     24  C   UNL A   1      39.132 -37.394 -29.890  0.00  0.00    -0.047 A 
BRANCH  19  26
ATOM     25  C   UNL A   1      42.073 -37.074 -32.165  0.00  0.00    -0.001 C 
ATOM     26  C   UNL A   1      41.383 -36.914 -30.835  0.00  0.00    +0.160 C 
ATOM     27  O   UNL A   1      42.011 -36.978 -29.780  0.00  0.00    -0.292 OA
ENDBRANCH  19  26
ENDBRANCH  18  23
ENDBRANCH  17  18
ENDBRANCH  16  17
ENDBRANCH   1  16
TORSDOF 6
ENDMDL
MODEL 16
REMARK VINA RESULT:    -6.435      3.159      6.532
REMARK INTER + INTRA:          -9.513
REMARK INTER:                  -9.003
REMARK INTRA:                  -0.510
REMARK UNBOUND:                -1.009
REMARK  Name = cpd204.pdb
REMARK  8 active torsions:
REMARK  status: ('A' for Active; 'I' for Inactive)
REMARK    1  A    between atoms: C_1  and  C_2
REMARK    2  A    between atoms: C_2  and  C_4
REMARK    3  A    between atoms: C_8  and  C_9
REMARK    4  A    between atoms: C_9  and  S_10
REMARK    5  A    between atoms: S_10  and  C_11
REMARK    6  A    between atoms: C_11  and  C_12
REMARK    7  A    between atoms: C_13  and  C_14
REMARK    8  A    between atoms: C_23  and  N_24
REMARK                            x       y       z     vdW  Elec       q    Type
REMARK                         _______ _______ _______ _____ _____    ______ ____
ROOT
ATOM      1  C   UNL A   1      34.540 -39.176 -29.606  0.00  0.00    +0.005 A 
ATOM      2  C   UNL A   1      33.723 -39.024 -28.481  0.00  0.00    +0.045 A 
ATOM      3  C   UNL A   1      33.616 -40.077 -27.415  0.00  0.00    -0.022 C 
ATOM      4  N   UNL A   1      32.981 -37.912 -28.254  0.00  0.00    -0.251 NA
ATOM      5  C   UNL A   1      33.016 -36.907 -29.137  0.00  0.00    +0.076 A 
ATOM      6  C   UNL A   1      32.260 -35.772 -28.860  0.00  0.00    -0.035 A 
ATOM      7  C   UNL A   1      32.225 -34.673 -29.719  0.00  0.00    -0.057 A 
ATOM      8  C   UNL A   1      32.963 -34.707 -30.890  0.00  0.00    -0.026 A 
ATOM      9  C   UNL A   1      33.723 -35.836 -31.180  0.00  0.00    +0.134 A 
ATOM     10  F   UNL A   1      34.401 -35.843 -32.341  0.00  0.00    -0.205 F 
ATOM     11  C   UNL A   1      33.776 -36.957 -30.318  0.00  0.00    +0.056 A 
ATOM     12  C   UNL A   1      34.518 -38.145 -30.570  0.00  0.00    +0.042 A 
ENDROOT
BRANCH  12  13
ATOM     13  N   UNL A   1      35.382 -38.227 -31.692  0.00  0.00    -0.357 N 
ATOM     14  H   UNL A   1      35.010 -38.189 -32.604  0.00  0.00    +0.000 HD
ATOM     15  H   UNL A   1      36.353 -38.322 -31.560  0.00  0.00    +0.000 HD
ENDBRANCH  12  13
BRANCH   1  16
ATOM     16  C   UNL A   1      35.398 -40.406 -29.795  0.00  0.00    +0.023 C 
BRANCH  16  17
ATOM     17  S   UNL A   1      36.844 -40.375 -28.681  0.00  0.00    -0.151 S 
BRANCH  17  18
ATOM     18  C   UNL A   1      37.057 -38.577 -28.520  0.00  0.00    +0.019 C 
BRANCH  18  23
ATOM     19  C   UNL A   1      39.586 -36.616 -30.608  0.00  0.00    +0.017 A 
ATOM     20  C   UNL A   1      40.799 -37.114 -30.123  0.00  0.00    -0.051 A 
ATOM     21  C   UNL A   1      40.803 -38.080 -29.116  0.00  0.00    -0.061 A 
ATOM     22  C   UNL A   1      39.600 -38.551 -28.588  0.00  0.00    -0.058 A 
ATOM     23  C   UNL A   1      38.372 -38.047 -29.040  0.00  0.00    -0.037 A 
ATOM     24  C   UNL A   1      38.381 -37.080 -30.059  0.00  0.00    -0.047 A 
BRANCH  19  26
ATOM     25  C   UNL A   1      40.362 -34.360 -31.603  0.00  0.00    -0.001 C 
ATOM     26  C   UNL A   1      39.524 -35.608 -31.708  0.00  0.00    +0.160 C 
ATOM     27  O   UNL A   1      38.796 -35.807 -32.678  0.00  0.00    -0.292 OA
ENDBRANCH  19  26
ENDBRANCH  18  23
ENDBRANCH  17  18
ENDBRANCH  16  17
ENDBRANCH   1  16
TORSDOF 6
ENDMDL
MODEL 17
REMARK VINA RESULT:    -6.378     18.875     21.338
REMARK INTER + INTRA:          -9.437
REMARK INTER:                  -8.402
REMARK INTRA:                  -1.036
REMARK UNBOUND:                -1.009
REMARK  Name = cpd204.pdb
REMARK  8 active torsions:
REMARK  status: ('A' for Active; 'I' for Inactive)
REMARK    1  A    between atoms: C_1  and  C_2
REMARK    2  A    between atoms: C_2  and  C_4
REMARK    3  A    between atoms: C_8  and  C_9
REMARK    4  A    between atoms: C_9  and  S_10
REMARK    5  A    between atoms: S_10  and  C_11
REMARK    6  A    between atoms: C_11  and  C_12
REMARK    7  A    between atoms: C_13  and  C_14
REMARK    8  A    between atoms: C_23  and  N_24
REMARK                            x       y       z     vdW  Elec       q    Type
REMARK                         _______ _______ _______ _____ _____    ______ ____
ROOT
ATOM      1  C   UNL A   1      45.579 -19.181 -38.661  0.00  0.00    +0.005 A 
ATOM      2  C   UNL A   1      44.505 -18.756 -39.451  0.00  0.00    +0.045 A 
ATOM      3  C   UNL A   1      43.641 -17.586 -39.074  0.00  0.00    -0.022 C 
ATOM      4  N   UNL A   1      44.171 -19.352 -40.622  0.00  0.00    -0.251 NA
ATOM      5  C   UNL A   1      44.888 -20.396 -41.056  0.00  0.00    +0.076 A 
ATOM      6  C   UNL A   1      44.530 -20.968 -42.273  0.00  0.00    -0.035 A 
ATOM      7  C   UNL A   1      45.210 -22.063 -42.809  0.00  0.00    -0.057 A 
ATOM      8  C   UNL A   1      46.275 -22.606 -42.109  0.00  0.00    -0.026 A 
ATOM      9  C   UNL A   1      46.642 -22.044 -40.890  0.00  0.00    +0.134 A 
ATOM     10  F   UNL A   1      47.661 -22.618 -40.227  0.00  0.00    -0.205 F 
ATOM     11  C   UNL A   1      45.969 -20.930 -40.334  0.00  0.00    +0.056 A 
ATOM     12  C   UNL A   1      46.286 -20.327 -39.085  0.00  0.00    +0.042 A 
ENDROOT
BRANCH  12  13
ATOM     13  N   UNL A   1      47.423 -20.751 -38.351  0.00  0.00    -0.357 N 
ATOM     14  H   UNL A   1      47.366 -20.857 -37.373  0.00  0.00    +0.000 HD
ATOM     15  H   UNL A   1      48.268 -20.939 -38.818  0.00  0.00    +0.000 HD
ENDBRANCH  12  13
BRANCH   1  16
ATOM     16  C   UNL A   1      45.956 -18.454 -37.390  0.00  0.00    +0.023 C 
BRANCH  16  17
ATOM     17  S   UNL A   1      45.607 -19.478 -35.920  0.00  0.00    -0.151 S 
BRANCH  17  18
ATOM     18  C   UNL A   1      43.918 -18.913 -35.557  0.00  0.00    +0.019 C 
BRANCH  18  23
ATOM     19  C   UNL A   1      41.598 -21.631 -36.912  0.00  0.00    +0.017 A 
ATOM     20  C   UNL A   1      40.832 -21.938 -35.782  0.00  0.00    -0.051 A 
ATOM     21  C   UNL A   1      41.069 -21.272 -34.579  0.00  0.00    -0.061 A 
ATOM     22  C   UNL A   1      42.067 -20.300 -34.496  0.00  0.00    -0.058 A 
ATOM     23  C   UNL A   1      42.865 -19.995 -35.608  0.00  0.00    -0.037 A 
ATOM     24  C   UNL A   1      42.614 -20.667 -36.816  0.00  0.00    -0.047 A 
BRANCH  19  26
ATOM     25  C   UNL A   1      42.117 -21.788 -39.438  0.00  0.00    -0.001 C 
ATOM     26  C   UNL A   1      41.365 -22.288 -38.232  0.00  0.00    +0.160 C 
ATOM     27  O   UNL A   1      40.570 -23.221 -38.318  0.00  0.00    -0.292 OA
ENDBRANCH  19  26
ENDBRANCH  18  23
ENDBRANCH  17  18
ENDBRANCH  16  17
ENDBRANCH   1  16
TORSDOF 6
ENDMDL
MODEL 18
REMARK VINA RESULT:    -6.231     20.374     22.095
REMARK INTER + INTRA:          -9.244
REMARK INTER:                  -8.319
REMARK INTRA:                  -0.924
REMARK UNBOUND:                -1.009
REMARK  Name = cpd204.pdb
REMARK  8 active torsions:
REMARK  status: ('A' for Active; 'I' for Inactive)
REMARK    1  A    between atoms: C_1  and  C_2
REMARK    2  A    between atoms: C_2  and  C_4
REMARK    3  A    between atoms: C_8  and  C_9
REMARK    4  A    between atoms: C_9  and  S_10
REMARK    5  A    between atoms: S_10  and  C_11
REMARK    6  A    between atoms: C_11  and  C_12
REMARK    7  A    between atoms: C_13  and  C_14
REMARK    8  A    between atoms: C_23  and  N_24
REMARK                            x       y       z     vdW  Elec       q    Type
REMARK                         _______ _______ _______ _____ _____    ______ ____
ROOT
ATOM      1  C   UNL A   1      45.907 -19.848 -39.864  0.00  0.00    +0.005 A 
ATOM      2  C   UNL A   1      44.979 -20.082 -40.885  0.00  0.00    +0.045 A 
ATOM      3  C   UNL A   1      43.755 -19.232 -41.071  0.00  0.00    -0.022 C 
ATOM      4  N   UNL A   1      45.120 -21.079 -41.793  0.00  0.00    -0.251 NA
ATOM      5  C   UNL A   1      46.185 -21.886 -41.724  0.00  0.00    +0.076 A 
ATOM      6  C   UNL A   1      46.307 -22.883 -42.686  0.00  0.00    -0.035 A 
ATOM      7  C   UNL A   1      47.378 -23.779 -42.698  0.00  0.00    -0.057 A 
ATOM      8  C   UNL A   1      48.352 -23.680 -41.719  0.00  0.00    -0.026 A 
ATOM      9  C   UNL A   1      48.241 -22.688 -40.750  0.00  0.00    +0.134 A 
ATOM     10  F   UNL A   1      49.191 -22.643 -39.799  0.00  0.00    -0.205 F 
ATOM     11  C   UNL A   1      47.167 -21.767 -40.726  0.00  0.00    +0.056 A 
ATOM     12  C   UNL A   1      46.990 -20.746 -39.751  0.00  0.00    +0.042 A 
ENDROOT
BRANCH  12  13
ATOM     13  N   UNL A   1      47.990 -20.506 -38.773  0.00  0.00    -0.357 N 
ATOM     14  H   UNL A   1      47.950 -19.694 -38.217  0.00  0.00    +0.000 HD
ATOM     15  H   UNL A   1      48.724 -21.150 -38.651  0.00  0.00    +0.000 HD
ENDBRANCH  12  13
BRANCH   1  16
ATOM     16  C   UNL A   1      45.746 -18.690 -38.906  0.00  0.00    +0.023 C 
BRANCH  16  17
ATOM     17  S   UNL A   1      45.036 -19.246 -37.318  0.00  0.00    -0.151 S 
BRANCH  17  18
ATOM     18  C   UNL A   1      43.445 -18.369 -37.380  0.00  0.00    +0.019 C 
BRANCH  18  23
ATOM     19  C   UNL A   1      39.925 -19.351 -38.496  0.00  0.00    +0.017 A 
ATOM     20  C   UNL A   1      40.055 -20.734 -38.657  0.00  0.00    -0.051 A 
ATOM     21  C   UNL A   1      41.282 -21.352 -38.411  0.00  0.00    -0.061 A 
ATOM     22  C   UNL A   1      42.382 -20.595 -38.006  0.00  0.00    -0.058 A 
ATOM     23  C   UNL A   1      42.282 -19.203 -37.864  0.00  0.00    -0.037 A 
ATOM     24  C   UNL A   1      41.041 -18.593 -38.108  0.00  0.00    -0.047 A 
BRANCH  19  26
ATOM     25  C   UNL A   1      38.148 -18.412 -40.121  0.00  0.00    -0.001 C 
ATOM     26  C   UNL A   1      38.627 -18.645 -38.711  0.00  0.00    +0.160 C 
ATOM     27  O   UNL A   1      37.970 -18.265 -37.744  0.00  0.00    -0.292 OA
ENDBRANCH  19  26
ENDBRANCH  18  23
ENDBRANCH  17  18
ENDBRANCH  16  17
ENDBRANCH   1  16
TORSDOF 6
ENDMDL
MODEL 19
REMARK VINA RESULT:    -6.147     24.730     28.415
REMARK INTER + INTRA:          -9.132
REMARK INTER:                  -8.576
REMARK INTRA:                  -0.557
REMARK UNBOUND:                -1.009
REMARK  Name = cpd204.pdb
REMARK  8 active torsions:
REMARK  status: ('A' for Active; 'I' for Inactive)
REMARK    1  A    between atoms: C_1  and  C_2
REMARK    2  A    between atoms: C_2  and  C_4
REMARK    3  A    between atoms: C_8  and  C_9
REMARK    4  A    between atoms: C_9  and  S_10
REMARK    5  A    between atoms: S_10  and  C_11
REMARK    6  A    between atoms: C_11  and  C_12
REMARK    7  A    between atoms: C_13  and  C_14
REMARK    8  A    between atoms: C_23  and  N_24
REMARK                            x       y       z     vdW  Elec       q    Type
REMARK                         _______ _______ _______ _____ _____    ______ ____
ROOT
ATOM      1  C   UNL A   1      55.929 -35.966 -50.123  0.00  0.00    +0.005 A 
ATOM      2  C   UNL A   1      55.059 -36.960 -49.662  0.00  0.00    +0.045 A 
ATOM      3  C   UNL A   1      54.651 -38.130 -50.512  0.00  0.00    -0.022 C 
ATOM      4  N   UNL A   1      54.533 -36.956 -48.413  0.00  0.00    -0.251 NA
ATOM      5  C   UNL A   1      54.845 -35.964 -47.571  0.00  0.00    +0.076 A 
ATOM      6  C   UNL A   1      54.304 -36.006 -46.290  0.00  0.00    -0.035 A 
ATOM      7  C   UNL A   1      54.564 -35.017 -45.340  0.00  0.00    -0.057 A 
ATOM      8  C   UNL A   1      55.384 -33.954 -45.678  0.00  0.00    -0.026 A 
ATOM      9  C   UNL A   1      55.930 -33.899 -46.957  0.00  0.00    +0.134 A 
ATOM     10  F   UNL A   1      56.697 -32.836 -47.257  0.00  0.00    -0.205 F 
ATOM     11  C   UNL A   1      55.684 -34.895 -47.931  0.00  0.00    +0.056 A 
ATOM     12  C   UNL A   1      56.197 -34.884 -49.257  0.00  0.00    +0.042 A 
ENDROOT
BRANCH  12  13
ATOM     13  N   UNL A   1      57.127 -33.889 -49.659  0.00  0.00    -0.357 N 
ATOM     14  H   UNL A   1      57.121 -33.555 -50.585  0.00  0.00    +0.000 HD
ATOM     15  H   UNL A   1      57.777 -33.533 -49.011  0.00  0.00    +0.000 HD
ENDBRANCH  12  13
BRANCH   1  16
ATOM     16  C   UNL A   1      56.541 -36.035 -51.504  0.00  0.00    +0.023 C 
BRANCH  16  17
ATOM     17  S   UNL A   1      55.443 -35.276 -52.748  0.00  0.00    -0.151 S 
BRANCH  17  18
ATOM     18  C   UNL A   1      56.252 -33.656 -52.912  0.00  0.00    +0.019 C 
BRANCH  18  23
ATOM     19  C   UNL A   1      53.091 -31.694 -53.785  0.00  0.00    +0.017 A 
ATOM     20  C   UNL A   1      53.625 -30.554 -54.393  0.00  0.00    -0.051 A 
ATOM     21  C   UNL A   1      55.008 -30.413 -54.517  0.00  0.00    -0.061 A 
ATOM     22  C   UNL A   1      55.862 -31.406 -54.035  0.00  0.00    -0.058 A 
ATOM     23  C   UNL A   1      55.350 -32.546 -53.397  0.00  0.00    -0.037 A 
ATOM     24  C   UNL A   1      53.956 -32.679 -53.284  0.00  0.00    -0.047 A 
BRANCH  19  26
ATOM     25  C   UNL A   1      50.762 -30.797 -53.115  0.00  0.00    -0.001 C 
ATOM     26  C   UNL A   1      51.619 -31.911 -53.658  0.00  0.00    +0.160 C 
ATOM     27  O   UNL A   1      51.129 -32.986 -53.995  0.00  0.00    -0.292 OA
ENDBRANCH  19  26
ENDBRANCH  18  23
ENDBRANCH  17  18
ENDBRANCH  16  17
ENDBRANCH   1  16
TORSDOF 6
ENDMDL
MODEL 20
REMARK VINA RESULT:    -6.040     17.700     20.305
REMARK INTER + INTRA:          -8.991
REMARK INTER:                  -8.576
REMARK INTRA:                  -0.415
REMARK UNBOUND:                -1.009
REMARK  Name = cpd204.pdb
REMARK  8 active torsions:
REMARK  status: ('A' for Active; 'I' for Inactive)
REMARK    1  A    between atoms: C_1  and  C_2
REMARK    2  A    between atoms: C_2  and  C_4
REMARK    3  A    between atoms: C_8  and  C_9
REMARK    4  A    between atoms: C_9  and  S_10
REMARK    5  A    between atoms: S_10  and  C_11
REMARK    6  A    between atoms: C_11  and  C_12
REMARK    7  A    between atoms: C_13  and  C_14
REMARK    8  A    between atoms: C_23  and  N_24
REMARK                            x       y       z     vdW  Elec       q    Type
REMARK                         _______ _______ _______ _____ _____    ______ ____
ROOT
ATOM      1  C   UNL A   1      45.075 -19.724 -38.802  0.00  0.00    +0.005 A 
ATOM      2  C   UNL A   1      46.384 -19.927 -38.352  0.00  0.00    +0.045 A 
ATOM      3  C   UNL A   1      46.917 -19.277 -37.107  0.00  0.00    -0.022 C 
ATOM      4  N   UNL A   1      47.265 -20.737 -38.989  0.00  0.00    -0.251 NA
ATOM      5  C   UNL A   1      46.883 -21.376 -40.102  0.00  0.00    +0.076 A 
ATOM      6  C   UNL A   1      47.807 -22.216 -40.717  0.00  0.00    -0.035 A 
ATOM      7  C   UNL A   1      47.509 -22.922 -41.883  0.00  0.00    -0.057 A 
ATOM      8  C   UNL A   1      46.256 -22.783 -42.456  0.00  0.00    -0.026 A 
ATOM      9  C   UNL A   1      45.323 -21.945 -41.852  0.00  0.00    +0.134 A 
ATOM     10  F   UNL A   1      44.129 -21.814 -42.454  0.00  0.00    -0.205 F 
ATOM     11  C   UNL A   1      45.605 -21.227 -40.666  0.00  0.00    +0.056 A 
ATOM     12  C   UNL A   1      44.701 -20.342 -40.015  0.00  0.00    +0.042 A 
ENDROOT
BRANCH  12  13
ATOM     13  N   UNL A   1      43.363 -20.218 -40.472  0.00  0.00    -0.357 N 
ATOM     14  H   UNL A   1      42.701 -20.912 -40.251  0.00  0.00    +0.000 HD
ATOM     15  H   UNL A   1      43.098 -19.437 -41.009  0.00  0.00    +0.000 HD
ENDBRANCH  12  13
BRANCH   1  16
ATOM     16  C   UNL A   1      44.104 -18.859 -38.031  0.00  0.00    +0.023 C 
BRANCH  16  17
ATOM     17  S   UNL A   1      43.418 -19.759 -36.598  0.00  0.00    -0.151 S 
BRANCH  17  18
ATOM     18  C   UNL A   1      41.646 -19.616 -36.977  0.00  0.00    +0.019 C 
BRANCH  18  23
ATOM     19  C   UNL A   1      39.971 -22.076 -34.579  0.00  0.00    +0.017 A 
ATOM     20  C   UNL A   1      39.319 -22.936 -35.467  0.00  0.00    -0.051 A 
ATOM     21  C   UNL A   1      39.413 -22.720 -36.843  0.00  0.00    -0.061 A 
ATOM     22  C   UNL A   1      40.156 -21.647 -37.337  0.00  0.00    -0.058 A 
ATOM     23  C   UNL A   1      40.796 -20.756 -36.464  0.00  0.00    -0.037 A 
ATOM     24  C   UNL A   1      40.699 -20.987 -35.083  0.00  0.00    -0.047 A 
BRANCH  19  26
ATOM     25  C   UNL A   1      41.226 -22.282 -32.329  0.00  0.00    -0.001 C 
ATOM     26  C   UNL A   1      39.932 -22.281 -33.101  0.00  0.00    +0.160 C 
ATOM     27  O   UNL A   1      38.853 -22.444 -32.535  0.00  0.00    -0.292 OA
ENDBRANCH  19  26
ENDBRANCH  18  23
ENDBRANCH  17  18
ENDBRANCH  16  17
ENDBRANCH   1  16
TORSDOF 6
ENDMDL
