REMARK  Name = cpd71.pdb
REMARK  3 active torsions:
REMARK  status: ('A' for Active; 'I' for Inactive)
REMARK    1  A    between atoms: C_10  and  N_11
REMARK    2  A    between atoms: N_11  and  C_12
REMARK    3  A    between atoms: C_12  and  C_13
REMARK                            x       y       z     vdW  Elec       q    Type
REMARK                         _______ _______ _______ _____ _____    ______ ____
ROOT
ATOM      1 CL   UNL A   1       1.212  -5.776   0.522  0.00  0.00    -0.083 Cl
ATOM      2  C   UNL A   1      -0.149  -4.753   0.183  0.00  0.00    +0.052 A 
ATOM      3  C   UNL A   1      -1.324  -5.435  -0.157  0.00  0.00    -0.043 A 
ATOM      4  C   UNL A   1      -2.483  -4.723  -0.404  0.00  0.00    -0.058 A 
ATOM      5  C   UNL A   1      -2.459  -3.337  -0.298  0.00  0.00    -0.036 A 
ATOM      6  C   UNL A   1      -1.307  -2.638   0.038  0.00  0.00    +0.074 A 
ATOM      7  N   UNL A   1      -1.438  -1.310   0.110  0.00  0.00    -0.251 NA
ATOM      8  C   UNL A   1      -0.374  -0.545   0.441  0.00  0.00    +0.047 A 
ATOM      9  C   UNL A   1       0.889  -1.078   0.682  0.00  0.00    -0.005 A 
ATOM     10  C   UNL A   1       1.034  -2.483   0.590  0.00  0.00    +0.043 A 
ATOM     11  C   UNL A   1      -0.097  -3.322   0.277  0.00  0.00    +0.040 A 
ATOM     12  C   UNL A   1       2.033  -0.172   1.078  0.00  0.00    -0.024 C 
ATOM     13  C   UNL A   1       2.441   0.801  -0.031  0.00  0.00    -0.049 C 
ATOM     14  C   UNL A   1       1.552   2.039  -0.127  0.00  0.00    -0.052 C 
ATOM     15  C   UNL A   1       0.102   1.753  -0.512  0.00  0.00    -0.048 C 
ATOM     16  C   UNL A   1      -0.656   0.933   0.530  0.00  0.00    -0.010 C 
ENDROOT
BRANCH  10  17
ATOM     17  N   UNL A   1       2.347  -3.031   0.707  0.00  0.00    -0.338 N 
ATOM     18  H   UNL A   1       2.726  -3.380   1.546  0.00  0.00    +0.000 HD
BRANCH  17  19
ATOM     19  C   UNL A   1       3.067  -3.011  -0.580  0.00  0.00    +0.041 C 
BRANCH  19  20
ATOM     20  C   UNL A   1       4.374  -3.754  -0.524  0.00  0.00    +0.007 A 
ATOM     21  C   UNL A   1       5.404  -3.599   0.384  0.00  0.00    -0.050 A 
ATOM     22  C   UNL A   1       6.491  -4.484   0.129  0.00  0.00    -0.054 A 
ATOM     23  C   UNL A   1       6.256  -5.284  -0.966  0.00  0.00    -0.024 A 
ATOM     24  S   UNL A   1       4.735  -4.966  -1.680  0.00  0.00    -0.100 S 
ENDBRANCH  19  20
ENDBRANCH  17  19
ENDBRANCH  10  17
TORSDOF 3
