MODEL 1
REMARK VINA RESULT:    -8.082      0.000      0.000
REMARK INTER + INTRA:          -9.895
REMARK INTER:                  -9.499
REMARK INTRA:                  -0.395
REMARK UNBOUND:                -0.395
REMARK  Name = cpd71.pdb
REMARK  3 active torsions:
REMARK  status: ('A' for Active; 'I' for Inactive)
REMARK    1  A    between atoms: C_10  and  N_11
REMARK    2  A    between atoms: N_11  and  C_12
REMARK    3  A    between atoms: C_12  and  C_13
REMARK                            x       y       z     vdW  Elec       q    Type
REMARK                         _______ _______ _______ _____ _____    ______ ____
ROOT
ATOM      1 CL   UNL A   1      33.733 -36.388 -30.303  0.00  0.00    -0.083 Cl
ATOM      2  C   UNL A   1      35.069 -37.206 -29.556  0.00  0.00    +0.052 A 
ATOM      3  C   UNL A   1      34.716 -38.075 -28.516  0.00  0.00    -0.043 A 
ATOM      4  C   UNL A   1      35.695 -38.814 -27.877  0.00  0.00    -0.058 A 
ATOM      5  C   UNL A   1      37.015 -38.685 -28.292  0.00  0.00    -0.036 A 
ATOM      6  C   UNL A   1      37.391 -37.831 -29.320  0.00  0.00    +0.074 A 
ATOM      7  N   UNL A   1      38.694 -37.818 -29.614  0.00  0.00    -0.251 NA
ATOM      8  C   UNL A   1      39.154 -37.026 -30.608  0.00  0.00    +0.047 A 
ATOM      9  C   UNL A   1      38.325 -36.177 -31.336  0.00  0.00    -0.005 A 
ATOM     10  C   UNL A   1      36.947 -36.176 -31.015  0.00  0.00    +0.043 A 
ATOM     11  C   UNL A   1      36.428 -37.042 -29.985  0.00  0.00    +0.040 A 
ATOM     12  C   UNL A   1      38.895 -35.337 -32.457  0.00  0.00    -0.024 C 
ATOM     13  C   UNL A   1      39.883 -34.275 -31.970  0.00  0.00    -0.049 C 
ATOM     14  C   UNL A   1      41.291 -34.809 -31.714  0.00  0.00    -0.052 C 
ATOM     15  C   UNL A   1      41.388 -35.833 -30.586  0.00  0.00    -0.048 C 
ATOM     16  C   UNL A   1      40.634 -37.130 -30.872  0.00  0.00    -0.010 C 
ENDROOT
BRANCH  10  17
ATOM     17  N   UNL A   1      36.108 -35.219 -31.663  0.00  0.00    -0.338 N 
ATOM     18  H   UNL A   1      35.529 -35.424 -32.432  0.00  0.00    +0.000 HD
BRANCH  17  19
ATOM     19  C   UNL A   1      36.215 -33.886 -31.041  0.00  0.00    +0.041 C 
BRANCH  19  20
ATOM     20  C   UNL A   1      34.872 -33.291 -30.713  0.00  0.00    +0.007 A 
ATOM     21  C   UNL A   1      34.423 -32.821 -29.493  0.00  0.00    -0.050 A 
ATOM     22  C   UNL A   1      33.091 -32.320 -29.561  0.00  0.00    -0.054 A 
ATOM     23  C   UNL A   1      32.566 -32.426 -30.829  0.00  0.00    -0.024 A 
ATOM     24  S   UNL A   1      33.674 -33.126 -31.927  0.00  0.00    -0.100 S 
ENDBRANCH  19  20
ENDBRANCH  17  19
ENDBRANCH  10  17
TORSDOF 3
ENDMDL
MODEL 2
REMARK VINA RESULT:    -7.917      1.768      4.551
REMARK INTER + INTRA:          -9.701
REMARK INTER:                  -9.497
REMARK INTRA:                  -0.204
REMARK UNBOUND:                -0.395
REMARK  Name = cpd71.pdb
REMARK  3 active torsions:
REMARK  status: ('A' for Active; 'I' for Inactive)
REMARK    1  A    between atoms: C_10  and  N_11
REMARK    2  A    between atoms: N_11  and  C_12
REMARK    3  A    between atoms: C_12  and  C_13
REMARK                            x       y       z     vdW  Elec       q    Type
REMARK                         _______ _______ _______ _____ _____    ______ ____
ROOT
ATOM      1 CL   UNL A   1      38.637 -35.302 -32.219  0.00  0.00    -0.083 Cl
ATOM      2  C   UNL A   1      38.841 -36.390 -30.881  0.00  0.00    +0.052 A 
ATOM      3  C   UNL A   1      40.106 -36.985 -30.797  0.00  0.00    -0.043 A 
ATOM      4  C   UNL A   1      40.395 -37.835 -29.746  0.00  0.00    -0.058 A 
ATOM      5  C   UNL A   1      39.421 -38.073 -28.783  0.00  0.00    -0.036 A 
ATOM      6  C   UNL A   1      38.160 -37.495 -28.844  0.00  0.00    +0.074 A 
ATOM      7  N   UNL A   1      37.332 -37.811 -27.844  0.00  0.00    -0.251 NA
ATOM      8  C   UNL A   1      36.086 -37.288 -27.810  0.00  0.00    +0.047 A 
ATOM      9  C   UNL A   1      35.597 -36.447 -28.805  0.00  0.00    -0.005 A 
ATOM     10  C   UNL A   1      36.467 -36.124 -29.875  0.00  0.00    +0.043 A 
ATOM     11  C   UNL A   1      37.814 -36.639 -29.910  0.00  0.00    +0.040 A 
ATOM     12  C   UNL A   1      34.204 -35.870 -28.696  0.00  0.00    -0.024 C 
ATOM     13  C   UNL A   1      33.105 -36.932 -28.782  0.00  0.00    -0.049 C 
ATOM     14  C   UNL A   1      32.854 -37.672 -27.470  0.00  0.00    -0.052 C 
ATOM     15  C   UNL A   1      34.030 -38.512 -26.978  0.00  0.00    -0.048 C 
ATOM     16  C   UNL A   1      35.261 -37.685 -26.613  0.00  0.00    -0.010 C 
ENDROOT
BRANCH  10  17
ATOM     17  N   UNL A   1      35.939 -35.369 -30.965  0.00  0.00    -0.338 N 
ATOM     18  H   UNL A   1      35.568 -35.770 -31.785  0.00  0.00    +0.000 HD
BRANCH  17  19
ATOM     19  C   UNL A   1      36.015 -33.918 -30.716  0.00  0.00    +0.041 C 
BRANCH  19  20
ATOM     20  C   UNL A   1      34.670 -33.247 -30.781  0.00  0.00    +0.007 A 
ATOM     21  C   UNL A   1      34.184 -32.232 -29.980  0.00  0.00    -0.050 A 
ATOM     22  C   UNL A   1      32.862 -31.841 -30.339  0.00  0.00    -0.054 A 
ATOM     23  C   UNL A   1      32.381 -32.572 -31.402  0.00  0.00    -0.024 A 
ATOM     24  S   UNL A   1      33.518 -33.722 -31.958  0.00  0.00    -0.100 S 
ENDBRANCH  19  20
ENDBRANCH  17  19
ENDBRANCH  10  17
TORSDOF 3
ENDMDL
MODEL 3
REMARK VINA RESULT:    -7.697      1.689      4.438
REMARK INTER + INTRA:          -9.442
REMARK INTER:                  -9.175
REMARK INTRA:                  -0.267
REMARK UNBOUND:                -0.395
REMARK  Name = cpd71.pdb
REMARK  3 active torsions:
REMARK  status: ('A' for Active; 'I' for Inactive)
REMARK    1  A    between atoms: C_10  and  N_11
REMARK    2  A    between atoms: N_11  and  C_12
REMARK    3  A    between atoms: C_12  and  C_13
REMARK                            x       y       z     vdW  Elec       q    Type
REMARK                         _______ _______ _______ _____ _____    ______ ____
ROOT
ATOM      1 CL   UNL A   1      39.015 -33.566 -32.309  0.00  0.00    -0.083 Cl
ATOM      2  C   UNL A   1      39.655 -34.951 -31.481  0.00  0.00    +0.052 A 
ATOM      3  C   UNL A   1      41.054 -35.008 -31.430  0.00  0.00    -0.043 A 
ATOM      4  C   UNL A   1      41.674 -36.044 -30.757  0.00  0.00    -0.058 A 
ATOM      5  C   UNL A   1      40.890 -37.007 -30.132  0.00  0.00    -0.036 A 
ATOM      6  C   UNL A   1      39.502 -36.973 -30.168  0.00  0.00    +0.074 A 
ATOM      7  N   UNL A   1      38.883 -37.961 -29.515  0.00  0.00    -0.251 NA
ATOM      8  C   UNL A   1      37.532 -38.006 -29.484  0.00  0.00    +0.047 A 
ATOM      9  C   UNL A   1      36.734 -37.074 -30.142  0.00  0.00    -0.005 A 
ATOM     10  C   UNL A   1      37.388 -36.036 -30.848  0.00  0.00    +0.043 A 
ATOM     11  C   UNL A   1      38.828 -35.946 -30.861  0.00  0.00    +0.040 A 
ATOM     12  C   UNL A   1      35.228 -37.161 -30.044  0.00  0.00    -0.024 C 
ATOM     13  C   UNL A   1      34.653 -38.414 -30.710  0.00  0.00    -0.049 C 
ATOM     14  C   UNL A   1      34.737 -39.669 -29.844  0.00  0.00    -0.052 C 
ATOM     15  C   UNL A   1      36.159 -40.133 -29.532  0.00  0.00    -0.048 C 
ATOM     16  C   UNL A   1      36.952 -39.142 -28.682  0.00  0.00    -0.010 C 
ENDROOT
BRANCH  10  17
ATOM     17  N   UNL A   1      36.588 -35.151 -31.632  0.00  0.00    -0.338 N 
ATOM     18  H   UNL A   1      36.346 -35.314 -32.572  0.00  0.00    +0.000 HD
BRANCH  17  19
ATOM     19  C   UNL A   1      36.169 -33.964 -30.864  0.00  0.00    +0.041 C 
BRANCH  19  20
ATOM     20  C   UNL A   1      34.736 -33.584 -31.122  0.00  0.00    +0.007 A 
ATOM     21  C   UNL A   1      33.881 -34.087 -32.083  0.00  0.00    -0.050 A 
ATOM     22  C   UNL A   1      32.588 -33.491 -32.027  0.00  0.00    -0.054 A 
ATOM     23  C   UNL A   1      32.500 -32.550 -31.026  0.00  0.00    -0.024 A 
ATOM     24  S   UNL A   1      33.967 -32.390 -30.163  0.00  0.00    -0.100 S 
ENDBRANCH  19  20
ENDBRANCH  17  19
ENDBRANCH  10  17
TORSDOF 3
ENDMDL
MODEL 4
REMARK VINA RESULT:    -7.387      2.708      5.736
REMARK INTER + INTRA:          -9.078
REMARK INTER:                  -8.772
REMARK INTRA:                  -0.305
REMARK UNBOUND:                -0.395
REMARK  Name = cpd71.pdb
REMARK  3 active torsions:
REMARK  status: ('A' for Active; 'I' for Inactive)
REMARK    1  A    between atoms: C_10  and  N_11
REMARK    2  A    between atoms: N_11  and  C_12
REMARK    3  A    between atoms: C_12  and  C_13
REMARK                            x       y       z     vdW  Elec       q    Type
REMARK                         _______ _______ _______ _____ _____    ______ ____
ROOT
ATOM      1 CL   UNL A   1      39.324 -39.168 -28.048  0.00  0.00    -0.083 Cl
ATOM      2  C   UNL A   1      39.525 -37.936 -29.254  0.00  0.00    +0.052 A 
ATOM      3  C   UNL A   1      40.806 -37.870 -29.816  0.00  0.00    -0.043 A 
ATOM      4  C   UNL A   1      41.068 -36.956 -30.819  0.00  0.00    -0.058 A 
ATOM      5  C   UNL A   1      40.045 -36.124 -31.259  0.00  0.00    -0.036 A 
ATOM      6  C   UNL A   1      38.766 -36.171 -30.719  0.00  0.00    +0.074 A 
ATOM      7  N   UNL A   1      37.884 -35.318 -31.247  0.00  0.00    -0.251 NA
ATOM      8  C   UNL A   1      36.611 -35.298 -30.794  0.00  0.00    +0.047 A 
ATOM      9  C   UNL A   1      36.169 -36.114 -29.757  0.00  0.00    -0.005 A 
ATOM     10  C   UNL A   1      37.106 -37.007 -29.184  0.00  0.00    +0.043 A 
ATOM     11  C   UNL A   1      38.460 -37.073 -29.679  0.00  0.00    +0.040 A 
ATOM     12  C   UNL A   1      34.724 -36.066 -29.315  0.00  0.00    -0.024 C 
ATOM     13  C   UNL A   1      34.331 -34.726 -28.688  0.00  0.00    -0.049 C 
ATOM     14  C   UNL A   1      34.009 -33.636 -29.708  0.00  0.00    -0.052 C 
ATOM     15  C   UNL A   1      35.189 -33.212 -30.581  0.00  0.00    -0.048 C 
ATOM     16  C   UNL A   1      35.701 -34.323 -31.496  0.00  0.00    -0.010 C 
ENDROOT
BRANCH  10  17
ATOM     17  N   UNL A   1      36.704 -37.756 -28.037  0.00  0.00    -0.338 N 
ATOM     18  H   UNL A   1      36.868 -37.472 -27.108  0.00  0.00    +0.000 HD
BRANCH  17  19
ATOM     19  C   UNL A   1      36.015 -39.005 -28.411  0.00  0.00    +0.041 C 
BRANCH  19  20
ATOM     20  C   UNL A   1      34.752 -39.227 -27.625  0.00  0.00    +0.007 A 
ATOM     21  C   UNL A   1      34.275 -38.496 -26.554  0.00  0.00    -0.050 A 
ATOM     22  C   UNL A   1      33.035 -38.998 -26.062  0.00  0.00    -0.054 A 
ATOM     23  C   UNL A   1      32.608 -40.096 -26.773  0.00  0.00    -0.024 A 
ATOM     24  S   UNL A   1      33.697 -40.518 -28.022  0.00  0.00    -0.100 S 
ENDBRANCH  19  20
ENDBRANCH  17  19
ENDBRANCH  10  17
TORSDOF 3
ENDMDL
MODEL 5
REMARK VINA RESULT:    -6.884     17.180     18.978
REMARK INTER + INTRA:          -8.487
REMARK INTER:                  -7.870
REMARK INTRA:                  -0.617
REMARK UNBOUND:                -0.395
REMARK  Name = cpd71.pdb
REMARK  3 active torsions:
REMARK  status: ('A' for Active; 'I' for Inactive)
REMARK    1  A    between atoms: C_10  and  N_11
REMARK    2  A    between atoms: N_11  and  C_12
REMARK    3  A    between atoms: C_12  and  C_13
REMARK                            x       y       z     vdW  Elec       q    Type
REMARK                         _______ _______ _______ _____ _____    ______ ____
ROOT
ATOM      1 CL   UNL A   1      44.261 -21.980 -42.730  0.00  0.00    -0.083 Cl
ATOM      2  C   UNL A   1      45.626 -22.145 -41.671  0.00  0.00    +0.052 A 
ATOM      3  C   UNL A   1      46.697 -22.874 -42.204  0.00  0.00    -0.043 A 
ATOM      4  C   UNL A   1      47.854 -23.031 -41.465  0.00  0.00    -0.058 A 
ATOM      5  C   UNL A   1      47.935 -22.450 -40.205  0.00  0.00    -0.036 A 
ATOM      6  C   UNL A   1      46.888 -21.722 -39.655  0.00  0.00    +0.074 A 
ATOM      7  N   UNL A   1      47.114 -21.215 -38.439  0.00  0.00    -0.251 NA
ATOM      8  C   UNL A   1      46.157 -20.483 -37.826  0.00  0.00    +0.047 A 
ATOM      9  C   UNL A   1      44.907 -20.253 -38.394  0.00  0.00    -0.005 A 
ATOM     10  C   UNL A   1      44.660 -20.803 -39.675  0.00  0.00    +0.043 A 
ATOM     11  C   UNL A   1      45.680 -21.555 -40.364  0.00  0.00    +0.040 A 
ATOM     12  C   UNL A   1      43.889 -19.400 -37.671  0.00  0.00    -0.024 C 
ATOM     13  C   UNL A   1      43.397 -20.028 -36.365  0.00  0.00    -0.049 C 
ATOM     14  C   UNL A   1      44.343 -19.822 -35.184  0.00  0.00    -0.052 C 
ATOM     15  C   UNL A   1      45.705 -20.497 -35.334  0.00  0.00    -0.048 C 
ATOM     16  C   UNL A   1      46.544 -19.931 -36.478  0.00  0.00    -0.010 C 
ENDROOT
BRANCH  10  17
ATOM     17  N   UNL A   1      43.343 -20.686 -40.212  0.00  0.00    -0.338 N 
ATOM     18  H   UNL A   1      43.043 -19.940 -40.780  0.00  0.00    +0.000 HD
BRANCH  17  19
ATOM     19  C   UNL A   1      42.485 -21.818 -39.814  0.00  0.00    +0.041 C 
BRANCH  19  20
ATOM     20  C   UNL A   1      41.237 -21.375 -39.099  0.00  0.00    +0.007 A 
ATOM     21  C   UNL A   1      40.444 -20.276 -39.370  0.00  0.00    -0.050 A 
ATOM     22  C   UNL A   1      39.334 -20.175 -38.482  0.00  0.00    -0.054 A 
ATOM     23  C   UNL A   1      39.318 -21.198 -37.561  0.00  0.00    -0.024 A 
ATOM     24  S   UNL A   1      40.634 -22.270 -37.768  0.00  0.00    -0.100 S 
ENDBRANCH  19  20
ENDBRANCH  17  19
ENDBRANCH  10  17
TORSDOF 3
ENDMDL
MODEL 6
REMARK VINA RESULT:    -6.826      2.384      6.016
REMARK INTER + INTRA:          -8.419
REMARK INTER:                  -8.463
REMARK INTRA:                   0.044
REMARK UNBOUND:                -0.395
REMARK  Name = cpd71.pdb
REMARK  3 active torsions:
REMARK  status: ('A' for Active; 'I' for Inactive)
REMARK    1  A    between atoms: C_10  and  N_11
REMARK    2  A    between atoms: N_11  and  C_12
REMARK    3  A    between atoms: C_12  and  C_13
REMARK                            x       y       z     vdW  Elec       q    Type
REMARK                         _______ _______ _______ _____ _____    ______ ____
ROOT
ATOM      1 CL   UNL A   1      38.604 -38.276 -28.750  0.00  0.00    -0.083 Cl
ATOM      2  C   UNL A   1      38.600 -37.050 -29.980  0.00  0.00    +0.052 A 
ATOM      3  C   UNL A   1      39.793 -36.946 -30.706  0.00  0.00    -0.043 A 
ATOM      4  C   UNL A   1      39.888 -36.033 -31.740  0.00  0.00    -0.058 A 
ATOM      5  C   UNL A   1      38.786 -35.241 -32.045  0.00  0.00    -0.036 A 
ATOM      6  C   UNL A   1      37.593 -35.326 -31.340  0.00  0.00    +0.074 A 
ATOM      7  N   UNL A   1      36.620 -34.509 -31.752  0.00  0.00    -0.251 NA
ATOM      8  C   UNL A   1      35.418 -34.527 -31.134  0.00  0.00    +0.047 A 
ATOM      9  C   UNL A   1      35.146 -35.347 -30.043  0.00  0.00    -0.005 A 
ATOM     10  C   UNL A   1      36.181 -36.202 -29.594  0.00  0.00    +0.043 A 
ATOM     11  C   UNL A   1      37.459 -36.228 -30.264  0.00  0.00    +0.040 A 
ATOM     12  C   UNL A   1      33.771 -35.344 -29.414  0.00  0.00    -0.024 C 
ATOM     13  C   UNL A   1      33.418 -34.012 -28.748  0.00  0.00    -0.049 C 
ATOM     14  C   UNL A   1      32.926 -32.943 -29.722  0.00  0.00    -0.052 C 
ATOM     15  C   UNL A   1      33.965 -32.489 -30.746  0.00  0.00    -0.048 C 
ATOM     16  C   UNL A   1      34.389 -33.591 -31.715  0.00  0.00    -0.010 C 
ENDROOT
BRANCH  10  17
ATOM     17  N   UNL A   1      35.961 -36.953 -28.400  0.00  0.00    -0.338 N 
ATOM     18  H   UNL A   1      36.530 -36.894 -27.599  0.00  0.00    +0.000 HD
BRANCH  17  19
ATOM     19  C   UNL A   1      34.778 -37.827 -28.512  0.00  0.00    +0.041 C 
BRANCH  19  20
ATOM     20  C   UNL A   1      35.073 -39.110 -29.239  0.00  0.00    +0.007 A 
ATOM     21  C   UNL A   1      35.708 -40.238 -28.755  0.00  0.00    -0.050 A 
ATOM     22  C   UNL A   1      35.806 -41.269 -29.733  0.00  0.00    -0.054 A 
ATOM     23  C   UNL A   1      35.245 -40.894 -30.932  0.00  0.00    -0.024 A 
ATOM     24  S   UNL A   1      34.606 -39.309 -30.876  0.00  0.00    -0.100 S 
ENDBRANCH  19  20
ENDBRANCH  17  19
ENDBRANCH  10  17
TORSDOF 3
ENDMDL
MODEL 7
REMARK VINA RESULT:    -6.804      2.274      3.369
REMARK INTER + INTRA:          -8.392
REMARK INTER:                  -8.021
REMARK INTRA:                  -0.371
REMARK UNBOUND:                -0.395
REMARK  Name = cpd71.pdb
REMARK  3 active torsions:
REMARK  status: ('A' for Active; 'I' for Inactive)
REMARK    1  A    between atoms: C_10  and  N_11
REMARK    2  A    between atoms: N_11  and  C_12
REMARK    3  A    between atoms: C_12  and  C_13
REMARK                            x       y       z     vdW  Elec       q    Type
REMARK                         _______ _______ _______ _____ _____    ______ ____
ROOT
ATOM      1 CL   UNL A   1      31.560 -35.259 -27.822  0.00  0.00    -0.083 Cl
ATOM      2  C   UNL A   1      32.673 -36.197 -26.876  0.00  0.00    +0.052 A 
ATOM      3  C   UNL A   1      32.256 -36.451 -25.563  0.00  0.00    -0.043 A 
ATOM      4  C   UNL A   1      33.042 -37.227 -24.732  0.00  0.00    -0.058 A 
ATOM      5  C   UNL A   1      34.233 -37.750 -25.224  0.00  0.00    -0.036 A 
ATOM      6  C   UNL A   1      34.667 -37.513 -26.522  0.00  0.00    +0.074 A 
ATOM      7  N   UNL A   1      35.826 -38.088 -26.856  0.00  0.00    -0.251 NA
ATOM      8  C   UNL A   1      36.325 -37.924 -28.102  0.00  0.00    +0.047 A 
ATOM      9  C   UNL A   1      35.698 -37.139 -29.065  0.00  0.00    -0.005 A 
ATOM     10  C   UNL A   1      34.479 -36.515 -28.708  0.00  0.00    +0.043 A 
ATOM     11  C   UNL A   1      33.908 -36.709 -27.397  0.00  0.00    +0.040 A 
ATOM     12  C   UNL A   1      36.291 -37.019 -30.451  0.00  0.00    -0.024 C 
ATOM     13  C   UNL A   1      37.643 -36.301 -30.466  0.00  0.00    -0.049 C 
ATOM     14  C   UNL A   1      38.823 -37.193 -30.086  0.00  0.00    -0.052 C 
ATOM     15  C   UNL A   1      38.789 -37.717 -28.652  0.00  0.00    -0.048 C 
ATOM     16  C   UNL A   1      37.616 -38.654 -28.372  0.00  0.00    -0.010 C 
ENDROOT
BRANCH  10  17
ATOM     17  N   UNL A   1      33.892 -35.607 -29.639  0.00  0.00    -0.338 N 
ATOM     18  H   UNL A   1      33.159 -35.843 -30.253  0.00  0.00    +0.000 HD
BRANCH  17  19
ATOM     19  C   UNL A   1      34.515 -34.272 -29.571  0.00  0.00    +0.041 C 
BRANCH  19  20
ATOM     20  C   UNL A   1      33.598 -33.179 -30.048  0.00  0.00    +0.007 A 
ATOM     21  C   UNL A   1      33.716 -31.817 -29.845  0.00  0.00    -0.050 A 
ATOM     22  C   UNL A   1      32.657 -31.083 -30.452  0.00  0.00    -0.054 A 
ATOM     23  C   UNL A   1      31.764 -31.908 -31.097  0.00  0.00    -0.024 A 
ATOM     24  S   UNL A   1      32.202 -33.556 -30.968  0.00  0.00    -0.100 S 
ENDBRANCH  19  20
ENDBRANCH  17  19
ENDBRANCH  10  17
TORSDOF 3
ENDMDL
MODEL 8
REMARK VINA RESULT:    -6.633     18.262     19.882
REMARK INTER + INTRA:          -8.191
REMARK INTER:                  -8.025
REMARK INTRA:                  -0.166
REMARK UNBOUND:                -0.395
REMARK  Name = cpd71.pdb
REMARK  3 active torsions:
REMARK  status: ('A' for Active; 'I' for Inactive)
REMARK    1  A    between atoms: C_10  and  N_11
REMARK    2  A    between atoms: N_11  and  C_12
REMARK    3  A    between atoms: C_12  and  C_13
REMARK                            x       y       z     vdW  Elec       q    Type
REMARK                         _______ _______ _______ _____ _____    ______ ____
ROOT
ATOM      1 CL   UNL A   1      44.071 -19.965 -36.072  0.00  0.00    -0.083 Cl
ATOM      2  C   UNL A   1      43.371 -20.524 -37.559  0.00  0.00    +0.052 A 
ATOM      3  C   UNL A   1      41.971 -20.538 -37.579  0.00  0.00    -0.043 A 
ATOM      4  C   UNL A   1      41.306 -20.923 -38.728  0.00  0.00    -0.058 A 
ATOM      5  C   UNL A   1      42.046 -21.279 -39.849  0.00  0.00    -0.036 A 
ATOM      6  C   UNL A   1      43.435 -21.272 -39.855  0.00  0.00    +0.074 A 
ATOM      7  N   UNL A   1      44.009 -21.630 -41.007  0.00  0.00    -0.251 NA
ATOM      8  C   UNL A   1      45.357 -21.644 -41.113  0.00  0.00    +0.047 A 
ATOM      9  C   UNL A   1      46.197 -21.330 -40.049  0.00  0.00    -0.005 A 
ATOM     10  C   UNL A   1      45.591 -20.967 -38.822  0.00  0.00    +0.043 A 
ATOM     11  C   UNL A   1      44.155 -20.908 -38.698  0.00  0.00    +0.040 A 
ATOM     12  C   UNL A   1      47.697 -21.334 -40.239  0.00  0.00    -0.024 C 
ATOM     13  C   UNL A   1      48.263 -22.727 -40.530  0.00  0.00    -0.049 C 
ATOM     14  C   UNL A   1      48.121 -23.160 -41.987  0.00  0.00    -0.052 C 
ATOM     15  C   UNL A   1      46.680 -23.328 -42.464  0.00  0.00    -0.048 C 
ATOM     16  C   UNL A   1      45.884 -22.024 -42.472  0.00  0.00    -0.010 C 
ENDROOT
BRANCH  10  17
ATOM     17  N   UNL A   1      46.436 -20.769 -37.689  0.00  0.00    -0.338 N 
ATOM     18  H   UNL A   1      46.430 -21.344 -36.890  0.00  0.00    +0.000 HD
BRANCH  17  19
ATOM     19  C   UNL A   1      47.319 -19.600 -37.860  0.00  0.00    +0.041 C 
BRANCH  19  20
ATOM     20  C   UNL A   1      46.685 -18.321 -37.386  0.00  0.00    +0.007 A 
ATOM     21  C   UNL A   1      45.817 -17.494 -38.075  0.00  0.00    -0.050 A 
ATOM     22  C   UNL A   1      45.414 -16.367 -37.303  0.00  0.00    -0.054 A 
ATOM     23  C   UNL A   1      45.987 -16.369 -36.052  0.00  0.00    -0.024 A 
ATOM     24  S   UNL A   1      47.006 -17.722 -35.814  0.00  0.00    -0.100 S 
ENDBRANCH  19  20
ENDBRANCH  17  19
ENDBRANCH  10  17
TORSDOF 3
ENDMDL
MODEL 9
REMARK VINA RESULT:    -6.386      2.675      5.699
REMARK INTER + INTRA:          -7.902
REMARK INTER:                  -7.318
REMARK INTRA:                  -0.584
REMARK UNBOUND:                -0.395
REMARK  Name = cpd71.pdb
REMARK  3 active torsions:
REMARK  status: ('A' for Active; 'I' for Inactive)
REMARK    1  A    between atoms: C_10  and  N_11
REMARK    2  A    between atoms: N_11  and  C_12
REMARK    3  A    between atoms: C_12  and  C_13
REMARK                            x       y       z     vdW  Elec       q    Type
REMARK                         _______ _______ _______ _____ _____    ______ ____
ROOT
ATOM      1 CL   UNL A   1      30.890 -35.860 -29.008  0.00  0.00    -0.083 Cl
ATOM      2  C   UNL A   1      31.706 -34.796 -30.110  0.00  0.00    +0.052 A 
ATOM      3  C   UNL A   1      30.869 -33.907 -30.796  0.00  0.00    -0.043 A 
ATOM      4  C   UNL A   1      31.415 -32.984 -31.667  0.00  0.00    -0.058 A 
ATOM      5  C   UNL A   1      32.795 -32.950 -31.837  0.00  0.00    -0.036 A 
ATOM      6  C   UNL A   1      33.646 -33.820 -31.168  0.00  0.00    +0.074 A 
ATOM      7  N   UNL A   1      34.949 -33.664 -31.425  0.00  0.00    -0.251 NA
ATOM      8  C   UNL A   1      35.856 -34.458 -30.813  0.00  0.00    +0.047 A 
ATOM      9  C   UNL A   1      35.493 -35.476 -29.936  0.00  0.00    -0.005 A 
ATOM     10  C   UNL A   1      34.113 -35.654 -29.676  0.00  0.00    +0.043 A 
ATOM     11  C   UNL A   1      33.130 -34.793 -30.287  0.00  0.00    +0.040 A 
ATOM     12  C   UNL A   1      36.557 -36.311 -29.260  0.00  0.00    -0.024 C 
ATOM     13  C   UNL A   1      37.357 -37.174 -30.239  0.00  0.00    -0.049 C 
ATOM     14  C   UNL A   1      38.471 -36.419 -30.962  0.00  0.00    -0.052 C 
ATOM     15  C   UNL A   1      37.988 -35.304 -31.887  0.00  0.00    -0.048 C 
ATOM     16  C   UNL A   1      37.294 -34.159 -31.152  0.00  0.00    -0.010 C 
ENDROOT
BRANCH  10  17
ATOM     17  N   UNL A   1      33.719 -36.773 -28.882  0.00  0.00    -0.338 N 
ATOM     18  H   UNL A   1      33.701 -36.772 -27.897  0.00  0.00    +0.000 HD
BRANCH  17  19
ATOM     19  C   UNL A   1      33.343 -37.931 -29.714  0.00  0.00    +0.041 C 
BRANCH  19  20
ATOM     20  C   UNL A   1      34.317 -39.071 -29.594  0.00  0.00    +0.007 A 
ATOM     21  C   UNL A   1      34.898 -39.805 -30.611  0.00  0.00    -0.050 A 
ATOM     22  C   UNL A   1      35.781 -40.810 -30.119  0.00  0.00    -0.054 A 
ATOM     23  C   UNL A   1      35.843 -40.811 -28.744  0.00  0.00    -0.024 A 
ATOM     24  S   UNL A   1      34.841 -39.609 -28.054  0.00  0.00    -0.100 S 
ENDBRANCH  19  20
ENDBRANCH  17  19
ENDBRANCH  10  17
TORSDOF 3
ENDMDL
MODEL 10
REMARK VINA RESULT:    -6.356     14.608     16.798
REMARK INTER + INTRA:          -7.866
REMARK INTER:                  -7.639
REMARK INTRA:                  -0.227
REMARK UNBOUND:                -0.395
REMARK  Name = cpd71.pdb
REMARK  3 active torsions:
REMARK  status: ('A' for Active; 'I' for Inactive)
REMARK    1  A    between atoms: C_10  and  N_11
REMARK    2  A    between atoms: N_11  and  C_12
REMARK    3  A    between atoms: C_12  and  C_13
REMARK                            x       y       z     vdW  Elec       q    Type
REMARK                         _______ _______ _______ _____ _____    ______ ____
ROOT
ATOM      1 CL   UNL A   1      41.180 -22.419 -32.253  0.00  0.00    -0.083 Cl
ATOM      2  C   UNL A   1      40.208 -22.918 -33.603  0.00  0.00    +0.052 A 
ATOM      3  C   UNL A   1      39.166 -23.797 -33.281  0.00  0.00    -0.043 A 
ATOM      4  C   UNL A   1      38.301 -24.225 -34.270  0.00  0.00    -0.058 A 
ATOM      5  C   UNL A   1      38.478 -23.762 -35.569  0.00  0.00    -0.036 A 
ATOM      6  C   UNL A   1      39.503 -22.890 -35.913  0.00  0.00    +0.074 A 
ATOM      7  N   UNL A   1      39.544 -22.525 -37.198  0.00  0.00    -0.251 NA
ATOM      8  C   UNL A   1      40.499 -21.670 -37.625  0.00  0.00    +0.047 A 
ATOM      9  C   UNL A   1      41.488 -21.166 -36.785  0.00  0.00    -0.005 A 
ATOM     10  C   UNL A   1      41.457 -21.565 -35.427  0.00  0.00    +0.043 A 
ATOM     11  C   UNL A   1      40.422 -22.445 -34.940  0.00  0.00    +0.040 A 
ATOM     12  C   UNL A   1      42.512 -20.189 -37.317  0.00  0.00    -0.024 C 
ATOM     13  C   UNL A   1      43.443 -20.805 -38.364  0.00  0.00    -0.049 C 
ATOM     14  C   UNL A   1      42.841 -20.869 -39.766  0.00  0.00    -0.052 C 
ATOM     15  C   UNL A   1      41.621 -21.779 -39.894  0.00  0.00    -0.048 C 
ATOM     16  C   UNL A   1      40.417 -21.301 -39.085  0.00  0.00    -0.010 C 
ENDROOT
BRANCH  10  17
ATOM     17  N   UNL A   1      42.535 -21.160 -34.584  0.00  0.00    -0.338 N 
ATOM     18  H   UNL A   1      43.336 -21.707 -34.413  0.00  0.00    +0.000 HD
BRANCH  17  19
ATOM     19  C   UNL A   1      42.306 -19.825 -34.001  0.00  0.00    +0.041 C 
BRANCH  19  20
ATOM     20  C   UNL A   1      43.539 -18.964 -34.023  0.00  0.00    +0.007 A 
ATOM     21  C   UNL A   1      43.658 -17.637 -33.655  0.00  0.00    -0.050 A 
ATOM     22  C   UNL A   1      44.989 -17.149 -33.803  0.00  0.00    -0.054 A 
ATOM     23  C   UNL A   1      45.841 -18.119 -34.280  0.00  0.00    -0.024 A 
ATOM     24  S   UNL A   1      45.038 -19.605 -34.548  0.00  0.00    -0.100 S 
ENDBRANCH  19  20
ENDBRANCH  17  19
ENDBRANCH  10  17
TORSDOF 3
ENDMDL
MODEL 11
REMARK VINA RESULT:    -6.334     36.130     38.404
REMARK INTER + INTRA:          -7.841
REMARK INTER:                  -7.444
REMARK INTRA:                  -0.397
REMARK UNBOUND:                -0.395
REMARK  Name = cpd71.pdb
REMARK  3 active torsions:
REMARK  status: ('A' for Active; 'I' for Inactive)
REMARK    1  A    between atoms: C_10  and  N_11
REMARK    2  A    between atoms: N_11  and  C_12
REMARK    3  A    between atoms: C_12  and  C_13
REMARK                            x       y       z     vdW  Elec       q    Type
REMARK                         _______ _______ _______ _____ _____    ______ ____
ROOT
ATOM      1 CL   UNL A   1      62.848 -23.994  -9.601  0.00  0.00    -0.083 Cl
ATOM      2  C   UNL A   1      62.931 -24.846  -8.090  0.00  0.00    +0.052 A 
ATOM      3  C   UNL A   1      62.267 -26.080  -8.077  0.00  0.00    -0.043 A 
ATOM      4  C   UNL A   1      62.305 -26.866  -6.940  0.00  0.00    -0.058 A 
ATOM      5  C   UNL A   1      63.014 -26.416  -5.832  0.00  0.00    -0.036 A 
ATOM      6  C   UNL A   1      63.680 -25.198  -5.821  0.00  0.00    +0.074 A 
ATOM      7  N   UNL A   1      64.326 -24.903  -4.689  0.00  0.00    -0.251 NA
ATOM      8  C   UNL A   1      65.012 -23.743  -4.587  0.00  0.00    +0.047 A 
ATOM      9  C   UNL A   1      65.054 -22.802  -5.611  0.00  0.00    -0.005 A 
ATOM     10  C   UNL A   1      64.357 -23.105  -6.806  0.00  0.00    +0.043 A 
ATOM     11  C   UNL A   1      63.650 -24.354  -6.951  0.00  0.00    +0.040 A 
ATOM     12  C   UNL A   1      65.865 -21.536  -5.448  0.00  0.00    -0.024 C 
ATOM     13  C   UNL A   1      65.322 -20.611  -4.356  0.00  0.00    -0.049 C 
ATOM     14  C   UNL A   1      65.740 -21.010  -2.942  0.00  0.00    -0.052 C 
ATOM     15  C   UNL A   1      65.199 -22.359  -2.474  0.00  0.00    -0.048 C 
ATOM     16  C   UNL A   1      65.732 -23.543  -3.278  0.00  0.00    -0.010 C 
ENDROOT
BRANCH  10  17
ATOM     17  N   UNL A   1      64.283 -22.096  -7.813  0.00  0.00    -0.338 N 
ATOM     18  H   UNL A   1      64.905 -22.030  -8.574  0.00  0.00    +0.000 HD
BRANCH  17  19
ATOM     19  C   UNL A   1      63.164 -21.165  -7.577  0.00  0.00    +0.041 C 
BRANCH  19  20
ATOM     20  C   UNL A   1      62.971 -20.193  -8.709  0.00  0.00    +0.007 A 
ATOM     21  C   UNL A   1      62.312 -20.398  -9.906  0.00  0.00    -0.050 A 
ATOM     22  C   UNL A   1      62.325 -19.243 -10.739  0.00  0.00    -0.054 A 
ATOM     23  C   UNL A   1      62.994 -18.194 -10.151  0.00  0.00    -0.024 A 
ATOM     24  S   UNL A   1      63.603 -18.604  -8.607  0.00  0.00    -0.100 S 
ENDBRANCH  19  20
ENDBRANCH  17  19
ENDBRANCH  10  17
TORSDOF 3
ENDMDL
MODEL 12
REMARK VINA RESULT:    -6.277      2.558      6.170
REMARK INTER + INTRA:          -7.774
REMARK INTER:                  -7.499
REMARK INTRA:                  -0.274
REMARK UNBOUND:                -0.395
REMARK  Name = cpd71.pdb
REMARK  3 active torsions:
REMARK  status: ('A' for Active; 'I' for Inactive)
REMARK    1  A    between atoms: C_10  and  N_11
REMARK    2  A    between atoms: N_11  and  C_12
REMARK    3  A    between atoms: C_12  and  C_13
REMARK                            x       y       z     vdW  Elec       q    Type
REMARK                         _______ _______ _______ _____ _____    ______ ____
ROOT
ATOM      1 CL   UNL A   1      36.293 -33.084 -30.757  0.00  0.00    -0.083 Cl
ATOM      2  C   UNL A   1      34.738 -33.857 -30.755  0.00  0.00    +0.052 A 
ATOM      3  C   UNL A   1      33.647 -32.979 -30.774  0.00  0.00    -0.043 A 
ATOM      4  C   UNL A   1      32.361 -33.484 -30.819  0.00  0.00    -0.058 A 
ATOM      5  C   UNL A   1      32.179 -34.862 -30.856  0.00  0.00    -0.036 A 
ATOM      6  C   UNL A   1      33.244 -35.753 -30.838  0.00  0.00    +0.074 A 
ATOM      7  N   UNL A   1      32.914 -37.047 -30.887  0.00  0.00    -0.251 NA
ATOM      8  C   UNL A   1      33.883 -37.990 -30.885  0.00  0.00    +0.047 A 
ATOM      9  C   UNL A   1      35.237 -37.676 -30.799  0.00  0.00    -0.005 A 
ATOM     10  C   UNL A   1      35.587 -36.306 -30.730  0.00  0.00    +0.043 A 
ATOM     11  C   UNL A   1      34.571 -35.282 -30.770  0.00  0.00    +0.040 A 
ATOM     12  C   UNL A   1      36.275 -38.775 -30.832  0.00  0.00    -0.024 C 
ATOM     13  C   UNL A   1      36.211 -39.699 -29.614  0.00  0.00    -0.049 C 
ATOM     14  C   UNL A   1      35.133 -40.776 -29.709  0.00  0.00    -0.052 C 
ATOM     15  C   UNL A   1      33.702 -40.243 -29.743  0.00  0.00    -0.048 C 
ATOM     16  C   UNL A   1      33.390 -39.410 -30.984  0.00  0.00    -0.010 C 
ENDROOT
BRANCH  10  17
ATOM     17  N   UNL A   1      36.958 -35.975 -30.512  0.00  0.00    -0.338 N 
ATOM     18  H   UNL A   1      37.348 -35.798 -29.625  0.00  0.00    +0.000 HD
BRANCH  17  19
ATOM     19  C   UNL A   1      37.720 -35.928 -31.774  0.00  0.00    +0.041 C 
BRANCH  19  20
ATOM     20  C   UNL A   1      39.168 -36.294 -31.590  0.00  0.00    +0.007 A 
ATOM     21  C   UNL A   1      39.751 -36.955 -30.526  0.00  0.00    -0.050 A 
ATOM     22  C   UNL A   1      41.154 -37.133 -30.701  0.00  0.00    -0.054 A 
ATOM     23  C   UNL A   1      41.595 -36.601 -31.891  0.00  0.00    -0.024 A 
ATOM     24  S   UNL A   1      40.325 -35.891 -32.788  0.00  0.00    -0.100 S 
ENDBRANCH  19  20
ENDBRANCH  17  19
ENDBRANCH  10  17
TORSDOF 3
ENDMDL
MODEL 13
REMARK VINA RESULT:    -6.165      2.844      6.032
REMARK INTER + INTRA:          -7.642
REMARK INTER:                  -7.206
REMARK INTRA:                  -0.436
REMARK UNBOUND:                -0.395
REMARK  Name = cpd71.pdb
REMARK  3 active torsions:
REMARK  status: ('A' for Active; 'I' for Inactive)
REMARK    1  A    between atoms: C_10  and  N_11
REMARK    2  A    between atoms: N_11  and  C_12
REMARK    3  A    between atoms: C_12  and  C_13
REMARK                            x       y       z     vdW  Elec       q    Type
REMARK                         _______ _______ _______ _____ _____    ______ ____
ROOT
ATOM      1 CL   UNL A   1      35.851 -39.030 -28.387  0.00  0.00    -0.083 Cl
ATOM      2  C   UNL A   1      36.620 -37.732 -29.245  0.00  0.00    +0.052 A 
ATOM      3  C   UNL A   1      37.976 -37.941 -29.530  0.00  0.00    -0.043 A 
ATOM      4  C   UNL A   1      38.679 -36.992 -30.249  0.00  0.00    -0.058 A 
ATOM      5  C   UNL A   1      38.018 -35.849 -30.685  0.00  0.00    -0.036 A 
ATOM      6  C   UNL A   1      36.675 -35.619 -30.415  0.00  0.00    +0.074 A 
ATOM      7  N   UNL A   1      36.175 -34.482 -30.906  0.00  0.00    -0.251 NA
ATOM      8  C   UNL A   1      34.873 -34.176 -30.704  0.00  0.00    +0.047 A 
ATOM      9  C   UNL A   1      34.017 -34.987 -29.965  0.00  0.00    -0.005 A 
ATOM     10  C   UNL A   1      34.549 -36.184 -29.430  0.00  0.00    +0.043 A 
ATOM     11  C   UNL A   1      35.925 -36.550 -29.667  0.00  0.00    +0.040 A 
ATOM     12  C   UNL A   1      32.563 -34.605 -29.800  0.00  0.00    -0.024 C 
ATOM     13  C   UNL A   1      32.367 -33.323 -28.987  0.00  0.00    -0.049 C 
ATOM     14  C   UNL A   1      32.566 -32.041 -29.794  0.00  0.00    -0.052 C 
ATOM     15  C   UNL A   1      33.984 -31.835 -30.321  0.00  0.00    -0.048 C 
ATOM     16  C   UNL A   1      34.416 -32.888 -31.340  0.00  0.00    -0.010 C 
ENDROOT
BRANCH  10  17
ATOM     17  N   UNL A   1      33.720 -36.960 -28.565  0.00  0.00    -0.338 N 
ATOM     18  H   UNL A   1      33.192 -37.737 -28.857  0.00  0.00    +0.000 HD
BRANCH  17  19
ATOM     19  C   UNL A   1      33.750 -36.455 -27.179  0.00  0.00    +0.041 C 
BRANCH  19  20
ATOM     20  C   UNL A   1      33.381 -37.509 -26.171  0.00  0.00    +0.007 A 
ATOM     21  C   UNL A   1      32.902 -38.783 -26.407  0.00  0.00    -0.050 A 
ATOM     22  C   UNL A   1      32.666 -39.507 -25.203  0.00  0.00    -0.054 A 
ATOM     23  C   UNL A   1      32.971 -38.761 -24.087  0.00  0.00    -0.024 A 
ATOM     24  S   UNL A   1      33.536 -37.199 -24.493  0.00  0.00    -0.100 S 
ENDBRANCH  19  20
ENDBRANCH  17  19
ENDBRANCH  10  17
TORSDOF 3
ENDMDL
MODEL 14
REMARK VINA RESULT:    -6.103     15.120     17.853
REMARK INTER + INTRA:          -7.569
REMARK INTER:                  -7.480
REMARK INTRA:                  -0.088
REMARK UNBOUND:                -0.395
REMARK  Name = cpd71.pdb
REMARK  3 active torsions:
REMARK  status: ('A' for Active; 'I' for Inactive)
REMARK    1  A    between atoms: C_10  and  N_11
REMARK    2  A    between atoms: N_11  and  C_12
REMARK    3  A    between atoms: C_12  and  C_13
REMARK                            x       y       z     vdW  Elec       q    Type
REMARK                         _______ _______ _______ _____ _____    ______ ____
ROOT
ATOM      1 CL   UNL A   1      44.119 -19.587 -38.239  0.00  0.00    -0.083 Cl
ATOM      2  C   UNL A   1      42.809 -20.705 -38.460  0.00  0.00    +0.052 A 
ATOM      3  C   UNL A   1      42.590 -21.096 -39.787  0.00  0.00    -0.043 A 
ATOM      4  C   UNL A   1      41.601 -22.017 -40.076  0.00  0.00    -0.058 A 
ATOM      5  C   UNL A   1      40.849 -22.549 -39.034  0.00  0.00    -0.036 A 
ATOM      6  C   UNL A   1      41.047 -22.178 -37.711  0.00  0.00    +0.074 A 
ATOM      7  N   UNL A   1      40.254 -22.779 -36.818  0.00  0.00    -0.251 NA
ATOM      8  C   UNL A   1      40.381 -22.491 -35.503  0.00  0.00    +0.047 A 
ATOM      9  C   UNL A   1      41.291 -21.554 -35.023  0.00  0.00    -0.005 A 
ATOM     10  C   UNL A   1      42.121 -20.904 -35.969  0.00  0.00    +0.043 A 
ATOM     11  C   UNL A   1      42.030 -21.225 -37.372  0.00  0.00    +0.040 A 
ATOM     12  C   UNL A   1      41.406 -21.298 -33.538  0.00  0.00    -0.024 C 
ATOM     13  C   UNL A   1      40.146 -20.670 -32.937  0.00  0.00    -0.049 C 
ATOM     14  C   UNL A   1      39.037 -21.676 -32.633  0.00  0.00    -0.052 C 
ATOM     15  C   UNL A   1      38.456 -22.372 -33.862  0.00  0.00    -0.048 C 
ATOM     16  C   UNL A   1      39.460 -23.261 -34.592  0.00  0.00    -0.010 C 
ENDROOT
BRANCH  10  17
ATOM     17  N   UNL A   1      42.966 -19.851 -35.508  0.00  0.00    -0.338 N 
ATOM     18  H   UNL A   1      42.809 -18.896 -35.692  0.00  0.00    +0.000 HD
BRANCH  17  19
ATOM     19  C   UNL A   1      44.104 -20.364 -34.722  0.00  0.00    +0.041 C 
BRANCH  19  20
ATOM     20  C   UNL A   1      45.402 -19.691 -35.075  0.00  0.00    +0.007 A 
ATOM     21  C   UNL A   1      46.571 -20.276 -35.524  0.00  0.00    -0.050 A 
ATOM     22  C   UNL A   1      47.600 -19.320 -35.764  0.00  0.00    -0.054 A 
ATOM     23  C   UNL A   1      47.184 -18.037 -35.489  0.00  0.00    -0.024 A 
ATOM     24  S   UNL A   1      45.564 -17.990 -34.943  0.00  0.00    -0.100 S 
ENDBRANCH  19  20
ENDBRANCH  17  19
ENDBRANCH  10  17
TORSDOF 3
ENDMDL
MODEL 15
REMARK VINA RESULT:    -6.087     17.071     19.148
REMARK INTER + INTRA:          -7.550
REMARK INTER:                  -7.335
REMARK INTRA:                  -0.215
REMARK UNBOUND:                -0.395
REMARK  Name = cpd71.pdb
REMARK  3 active torsions:
REMARK  status: ('A' for Active; 'I' for Inactive)
REMARK    1  A    between atoms: C_10  and  N_11
REMARK    2  A    between atoms: N_11  and  C_12
REMARK    3  A    between atoms: C_12  and  C_13
REMARK                            x       y       z     vdW  Elec       q    Type
REMARK                         _______ _______ _______ _____ _____    ______ ____
ROOT
ATOM      1 CL   UNL A   1      41.810 -21.672 -40.517  0.00  0.00    -0.083 Cl
ATOM      2  C   UNL A   1      41.518 -21.317 -38.843  0.00  0.00    +0.052 A 
ATOM      3  C   UNL A   1      40.185 -21.455 -38.438  0.00  0.00    -0.043 A 
ATOM      4  C   UNL A   1      39.844 -21.241 -37.116  0.00  0.00    -0.058 A 
ATOM      5  C   UNL A   1      40.841 -20.901 -36.208  0.00  0.00    -0.036 A 
ATOM      6  C   UNL A   1      42.170 -20.759 -36.585  0.00  0.00    +0.074 A 
ATOM      7  N   UNL A   1      43.017 -20.437 -35.602  0.00  0.00    -0.251 NA
ATOM      8  C   UNL A   1      44.334 -20.287 -35.870  0.00  0.00    +0.047 A 
ATOM      9  C   UNL A   1      44.860 -20.419 -37.152  0.00  0.00    -0.005 A 
ATOM     10  C   UNL A   1      43.962 -20.743 -38.197  0.00  0.00    +0.043 A 
ATOM     11  C   UNL A   1      42.559 -20.946 -37.927  0.00  0.00    +0.040 A 
ATOM     12  C   UNL A   1      46.347 -20.269 -37.381  0.00  0.00    -0.024 C 
ATOM     13  C   UNL A   1      46.858 -18.852 -37.106  0.00  0.00    -0.049 C 
ATOM     14  C   UNL A   1      47.101 -18.558 -35.627  0.00  0.00    -0.052 C 
ATOM     15  C   UNL A   1      45.846 -18.588 -34.757  0.00  0.00    -0.048 C 
ATOM     16  C   UNL A   1      45.193 -19.966 -34.674  0.00  0.00    -0.010 C 
ENDROOT
BRANCH  10  17
ATOM     17  N   UNL A   1      44.464 -20.754 -39.533  0.00  0.00    -0.338 N 
ATOM     18  H   UNL A   1      44.453 -19.973 -40.133  0.00  0.00    +0.000 HD
BRANCH  17  19
ATOM     19  C   UNL A   1      45.000 -22.076 -39.907  0.00  0.00    +0.041 C 
BRANCH  19  20
ATOM     20  C   UNL A   1      46.295 -21.981 -40.667  0.00  0.00    +0.007 A 
ATOM     21  C   UNL A   1      47.106 -23.013 -41.101  0.00  0.00    -0.050 A 
ATOM     22  C   UNL A   1      48.257 -22.543 -41.798  0.00  0.00    -0.054 A 
ATOM     23  C   UNL A   1      48.287 -21.169 -41.872  0.00  0.00    -0.024 A 
ATOM     24  S   UNL A   1      46.937 -20.454 -41.104  0.00  0.00    -0.100 S 
ENDBRANCH  19  20
ENDBRANCH  17  19
ENDBRANCH  10  17
TORSDOF 3
ENDMDL
MODEL 16
REMARK VINA RESULT:    -5.982     17.049     19.276
REMARK INTER + INTRA:          -7.426
REMARK INTER:                  -6.900
REMARK INTRA:                  -0.526
REMARK UNBOUND:                -0.395
REMARK  Name = cpd71.pdb
REMARK  3 active torsions:
REMARK  status: ('A' for Active; 'I' for Inactive)
REMARK    1  A    between atoms: C_10  and  N_11
REMARK    2  A    between atoms: N_11  and  C_12
REMARK    3  A    between atoms: C_12  and  C_13
REMARK                            x       y       z     vdW  Elec       q    Type
REMARK                         _______ _______ _______ _____ _____    ______ ____
ROOT
ATOM      1 CL   UNL A   1      46.847 -19.659 -38.809  0.00  0.00    -0.083 Cl
ATOM      2  C   UNL A   1      45.622 -20.175 -39.926  0.00  0.00    +0.052 A 
ATOM      3  C   UNL A   1      45.995 -20.112 -41.274  0.00  0.00    -0.043 A 
ATOM      4  C   UNL A   1      45.114 -20.540 -42.250  0.00  0.00    -0.058 A 
ATOM      5  C   UNL A   1      43.873 -21.037 -41.868  0.00  0.00    -0.036 A 
ATOM      6  C   UNL A   1      43.480 -21.110 -40.538  0.00  0.00    +0.074 A 
ATOM      7  N   UNL A   1      42.263 -21.618 -40.322  0.00  0.00    -0.251 NA
ATOM      8  C   UNL A   1      41.797 -21.739 -39.059  0.00  0.00    +0.047 A 
ATOM      9  C   UNL A   1      42.522 -21.320 -37.948  0.00  0.00    -0.005 A 
ATOM     10  C   UNL A   1      43.805 -20.766 -38.174  0.00  0.00    +0.043 A 
ATOM     11  C   UNL A   1      44.338 -20.664 -39.511  0.00  0.00    +0.040 A 
ATOM     12  C   UNL A   1      41.959 -21.510 -36.557  0.00  0.00    -0.024 C 
ATOM     13  C   UNL A   1      40.704 -20.674 -36.298  0.00  0.00    -0.049 C 
ATOM     14  C   UNL A   1      39.422 -21.290 -36.854  0.00  0.00    -0.052 C 
ATOM     15  C   UNL A   1      39.381 -21.409 -38.376  0.00  0.00    -0.048 C 
ATOM     16  C   UNL A   1      40.430 -22.363 -38.942  0.00  0.00    -0.010 C 
ENDROOT
BRANCH  10  17
ATOM     17  N   UNL A   1      44.505 -20.215 -37.059  0.00  0.00    -0.338 N 
ATOM     18  H   UNL A   1      45.209 -20.690 -36.561  0.00  0.00    +0.000 HD
BRANCH  17  19
ATOM     19  C   UNL A   1      44.045 -18.850 -36.742  0.00  0.00    +0.041 C 
BRANCH  19  20
ATOM     20  C   UNL A   1      44.180 -18.518 -35.281  0.00  0.00    +0.007 A 
ATOM     21  C   UNL A   1      43.681 -19.217 -34.198  0.00  0.00    -0.050 A 
ATOM     22  C   UNL A   1      44.012 -18.604 -32.956  0.00  0.00    -0.054 A 
ATOM     23  C   UNL A   1      44.752 -17.457 -33.131  0.00  0.00    -0.024 A 
ATOM     24  S   UNL A   1      45.041 -17.123 -34.783  0.00  0.00    -0.100 S 
ENDBRANCH  19  20
ENDBRANCH  17  19
ENDBRANCH  10  17
TORSDOF 3
ENDMDL
MODEL 17
REMARK VINA RESULT:    -5.968     15.207     17.583
REMARK INTER + INTRA:          -7.410
REMARK INTER:                  -6.810
REMARK INTRA:                  -0.600
REMARK UNBOUND:                -0.395
REMARK  Name = cpd71.pdb
REMARK  3 active torsions:
REMARK  status: ('A' for Active; 'I' for Inactive)
REMARK    1  A    between atoms: C_10  and  N_11
REMARK    2  A    between atoms: N_11  and  C_12
REMARK    3  A    between atoms: C_12  and  C_13
REMARK                            x       y       z     vdW  Elec       q    Type
REMARK                         _______ _______ _______ _____ _____    ______ ____
ROOT
ATOM      1 CL   UNL A   1      41.596 -20.269 -32.619  0.00  0.00    -0.083 Cl
ATOM      2  C   UNL A   1      40.658 -21.341 -33.611  0.00  0.00    +0.052 A 
ATOM      3  C   UNL A   1      39.818 -22.209 -32.902  0.00  0.00    -0.043 A 
ATOM      4  C   UNL A   1      38.991 -23.078 -33.591  0.00  0.00    -0.058 A 
ATOM      5  C   UNL A   1      39.005 -23.062 -34.981  0.00  0.00    -0.036 A 
ATOM      6  C   UNL A   1      39.828 -22.211 -35.706  0.00  0.00    +0.074 A 
ATOM      7  N   UNL A   1      39.727 -22.303 -37.035  0.00  0.00    -0.251 NA
ATOM      8  C   UNL A   1      40.481 -21.507 -37.826  0.00  0.00    +0.047 A 
ATOM      9  C   UNL A   1      41.405 -20.600 -37.315  0.00  0.00    -0.005 A 
ATOM     10  C   UNL A   1      41.526 -20.513 -35.908  0.00  0.00    +0.043 A 
ATOM     11  C   UNL A   1      40.703 -21.324 -35.045  0.00  0.00    +0.040 A 
ATOM     12  C   UNL A   1      42.197 -19.716 -38.251  0.00  0.00    -0.024 C 
ATOM     13  C   UNL A   1      43.165 -20.498 -39.143  0.00  0.00    -0.049 C 
ATOM     14  C   UNL A   1      42.506 -21.129 -40.368  0.00  0.00    -0.052 C 
ATOM     15  C   UNL A   1      41.470 -22.205 -40.050  0.00  0.00    -0.048 C 
ATOM     16  C   UNL A   1      40.247 -21.675 -39.305  0.00  0.00    -0.010 C 
ENDROOT
BRANCH  10  17
ATOM     17  N   UNL A   1      42.558 -19.683 -35.374  0.00  0.00    -0.338 N 
ATOM     18  H   UNL A   1      42.420 -18.754 -35.077  0.00  0.00    +0.000 HD
BRANCH  17  19
ATOM     19  C   UNL A   1      43.855 -20.384 -35.321  0.00  0.00    +0.041 C 
BRANCH  19  20
ATOM     20  C   UNL A   1      44.961 -19.606 -35.980  0.00  0.00    +0.007 A 
ATOM     21  C   UNL A   1      46.031 -20.095 -36.704  0.00  0.00    -0.050 A 
ATOM     22  C   UNL A   1      46.880 -19.057 -37.186  0.00  0.00    -0.054 A 
ATOM     23  C   UNL A   1      46.431 -17.811 -36.812  0.00  0.00    -0.024 A 
ATOM     24  S   UNL A   1      44.997 -17.896 -35.886  0.00  0.00    -0.100 S 
ENDBRANCH  19  20
ENDBRANCH  17  19
ENDBRANCH  10  17
TORSDOF 3
ENDMDL
MODEL 18
REMARK VINA RESULT:    -5.961     15.335     17.560
REMARK INTER + INTRA:          -7.402
REMARK INTER:                  -6.993
REMARK INTRA:                  -0.409
REMARK UNBOUND:                -0.395
REMARK  Name = cpd71.pdb
REMARK  3 active torsions:
REMARK  status: ('A' for Active; 'I' for Inactive)
REMARK    1  A    between atoms: C_10  and  N_11
REMARK    2  A    between atoms: N_11  and  C_12
REMARK    3  A    between atoms: C_12  and  C_13
REMARK                            x       y       z     vdW  Elec       q    Type
REMARK                         _______ _______ _______ _____ _____    ______ ____
ROOT
ATOM      1 CL   UNL A   1      39.668 -22.881 -36.086  0.00  0.00    -0.083 Cl
ATOM      2  C   UNL A   1      39.858 -21.872 -34.686  0.00  0.00    +0.052 A 
ATOM      3  C   UNL A   1      38.778 -21.899 -33.794  0.00  0.00    -0.043 A 
ATOM      4  C   UNL A   1      38.839 -21.168 -32.622  0.00  0.00    -0.058 A 
ATOM      5  C   UNL A   1      39.983 -20.427 -32.347  0.00  0.00    -0.036 A 
ATOM      6  C   UNL A   1      41.066 -20.385 -33.215  0.00  0.00    +0.074 A 
ATOM      7  N   UNL A   1      42.098 -19.637 -32.813  0.00  0.00    -0.251 NA
ATOM      8  C   UNL A   1      43.204 -19.543 -33.586  0.00  0.00    +0.047 A 
ATOM      9  C   UNL A   1      43.311 -20.172 -34.823  0.00  0.00    -0.005 A 
ATOM     10  C   UNL A   1      42.213 -20.951 -35.258  0.00  0.00    +0.043 A 
ATOM     11  C   UNL A   1      41.039 -21.097 -34.432  0.00  0.00    +0.040 A 
ATOM     12  C   UNL A   1      44.586 -20.053 -35.627  0.00  0.00    -0.024 C 
ATOM     13  C   UNL A   1      44.863 -18.627 -36.109  0.00  0.00    -0.049 C 
ATOM     14  C   UNL A   1      45.498 -17.728 -35.051  0.00  0.00    -0.052 C 
ATOM     15  C   UNL A   1      44.617 -17.456 -33.834  0.00  0.00    -0.048 C 
ATOM     16  C   UNL A   1      44.315 -18.705 -33.008  0.00  0.00    -0.010 C 
ENDROOT
BRANCH  10  17
ATOM     17  N   UNL A   1      42.256 -21.495 -36.577  0.00  0.00    -0.338 N 
ATOM     18  H   UNL A   1      42.600 -22.392 -36.793  0.00  0.00    +0.000 HD
BRANCH  17  19
ATOM     19  C   UNL A   1      41.723 -20.551 -37.578  0.00  0.00    +0.041 C 
BRANCH  19  20
ATOM     20  C   UNL A   1      42.166 -20.880 -38.978  0.00  0.00    +0.007 A 
ATOM     21  C   UNL A   1      41.497 -21.624 -39.930  0.00  0.00    -0.050 A 
ATOM     22  C   UNL A   1      42.223 -21.722 -41.152  0.00  0.00    -0.054 A 
ATOM     23  C   UNL A   1      43.424 -21.052 -41.091  0.00  0.00    -0.024 A 
ATOM     24  S   UNL A   1      43.671 -20.312 -39.569  0.00  0.00    -0.100 S 
ENDBRANCH  19  20
ENDBRANCH  17  19
ENDBRANCH  10  17
TORSDOF 3
ENDMDL
MODEL 19
REMARK VINA RESULT:    -5.861     17.057     19.270
REMARK INTER + INTRA:          -7.284
REMARK INTER:                  -6.782
REMARK INTRA:                  -0.503
REMARK UNBOUND:                -0.395
REMARK  Name = cpd71.pdb
REMARK  3 active torsions:
REMARK  status: ('A' for Active; 'I' for Inactive)
REMARK    1  A    between atoms: C_10  and  N_11
REMARK    2  A    between atoms: N_11  and  C_12
REMARK    3  A    between atoms: C_12  and  C_13
REMARK                            x       y       z     vdW  Elec       q    Type
REMARK                         _______ _______ _______ _____ _____    ______ ____
ROOT
ATOM      1 CL   UNL A   1      41.442 -19.311 -35.470  0.00  0.00    -0.083 Cl
ATOM      2  C   UNL A   1      41.089 -20.283 -36.865  0.00  0.00    +0.052 A 
ATOM      3  C   UNL A   1      39.840 -20.915 -36.837  0.00  0.00    -0.043 A 
ATOM      4  C   UNL A   1      39.434 -21.679 -37.916  0.00  0.00    -0.058 A 
ATOM      5  C   UNL A   1      40.277 -21.795 -39.016  0.00  0.00    -0.036 A 
ATOM      6  C   UNL A   1      41.520 -21.178 -39.067  0.00  0.00    +0.074 A 
ATOM      7  N   UNL A   1      42.215 -21.372 -40.191  0.00  0.00    -0.251 NA
ATOM      8  C   UNL A   1      43.432 -20.802 -40.338  0.00  0.00    +0.047 A 
ATOM      9  C   UNL A   1      44.028 -20.034 -39.342  0.00  0.00    -0.005 A 
ATOM     10  C   UNL A   1      43.300 -19.841 -38.143  0.00  0.00    +0.043 A 
ATOM     11  C   UNL A   1      41.983 -20.407 -37.980  0.00  0.00    +0.040 A 
ATOM     12  C   UNL A   1      45.379 -19.398 -39.579  0.00  0.00    -0.024 C 
ATOM     13  C   UNL A   1      46.506 -20.422 -39.735  0.00  0.00    -0.049 C 
ATOM     14  C   UNL A   1      46.599 -21.033 -41.132  0.00  0.00    -0.052 C 
ATOM     15  C   UNL A   1      45.389 -21.870 -41.541  0.00  0.00    -0.048 C 
ATOM     16  C   UNL A   1      44.100 -21.060 -41.665  0.00  0.00    -0.010 C 
ENDROOT
BRANCH  10  17
ATOM     17  N   UNL A   1      43.950 -19.166 -37.066  0.00  0.00    -0.338 N 
ATOM     18  H   UNL A   1      43.841 -18.207 -36.870  0.00  0.00    +0.000 HD
BRANCH  17  19
ATOM     19  C   UNL A   1      44.804 -20.078 -36.282  0.00  0.00    +0.041 C 
BRANCH  19  20
ATOM     20  C   UNL A   1      46.105 -19.444 -35.873  0.00  0.00    +0.007 A 
ATOM     21  C   UNL A   1      47.210 -20.053 -35.309  0.00  0.00    -0.050 A 
ATOM     22  C   UNL A   1      48.269 -19.134 -35.058  0.00  0.00    -0.054 A 
ATOM     23  C   UNL A   1      47.938 -17.853 -35.438  0.00  0.00    -0.024 A 
ATOM     24  S   UNL A   1      46.359 -17.763 -36.089  0.00  0.00    -0.100 S 
ENDBRANCH  19  20
ENDBRANCH  17  19
ENDBRANCH  10  17
TORSDOF 3
ENDMDL
MODEL 20
REMARK VINA RESULT:    -5.699     17.122     19.364
REMARK INTER + INTRA:          -7.094
REMARK INTER:                  -6.464
REMARK INTRA:                  -0.630
REMARK UNBOUND:                -0.395
REMARK  Name = cpd71.pdb
REMARK  3 active torsions:
REMARK  status: ('A' for Active; 'I' for Inactive)
REMARK    1  A    between atoms: C_10  and  N_11
REMARK    2  A    between atoms: N_11  and  C_12
REMARK    3  A    between atoms: C_12  and  C_13
REMARK                            x       y       z     vdW  Elec       q    Type
REMARK                         _______ _______ _______ _____ _____    ______ ____
ROOT
ATOM      1 CL   UNL A   1      46.028 -17.765 -35.408  0.00  0.00    -0.083 Cl
ATOM      2  C   UNL A   1      44.585 -18.555 -34.855  0.00  0.00    +0.052 A 
ATOM      3  C   UNL A   1      44.383 -18.505 -33.470  0.00  0.00    -0.043 A 
ATOM      4  C   UNL A   1      43.243 -19.063 -32.923  0.00  0.00    -0.058 A 
ATOM      5  C   UNL A   1      42.310 -19.657 -33.766  0.00  0.00    -0.036 A 
ATOM      6  C   UNL A   1      42.487 -19.719 -35.142  0.00  0.00    +0.074 A 
ATOM      7  N   UNL A   1      41.503 -20.313 -35.824  0.00  0.00    -0.251 NA
ATOM      8  C   UNL A   1      41.581 -20.412 -37.170  0.00  0.00    +0.047 A 
ATOM      9  C   UNL A   1      42.674 -19.948 -37.896  0.00  0.00    -0.005 A 
ATOM     10  C   UNL A   1      43.725 -19.334 -37.173  0.00  0.00    +0.043 A 
ATOM     11  C   UNL A   1      43.645 -19.182 -35.741  0.00  0.00    +0.040 A 
ATOM     12  C   UNL A   1      42.688 -20.061 -39.403  0.00  0.00    -0.024 C 
ATOM     13  C   UNL A   1      42.727 -21.509 -39.898  0.00  0.00    -0.049 C 
ATOM     14  C   UNL A   1      41.364 -22.199 -39.903  0.00  0.00    -0.052 C 
ATOM     15  C   UNL A   1      40.738 -22.381 -38.522  0.00  0.00    -0.048 C 
ATOM     16  C   UNL A   1      40.393 -21.064 -37.829  0.00  0.00    -0.010 C 
ENDROOT
BRANCH  10  17
ATOM     17  N   UNL A   1      44.907 -18.971 -37.887  0.00  0.00    -0.338 N 
ATOM     18  H   UNL A   1      45.044 -18.096 -38.319  0.00  0.00    +0.000 HD
BRANCH  17  19
ATOM     19  C   UNL A   1      45.898 -20.064 -37.901  0.00  0.00    +0.041 C 
BRANCH  19  20
ATOM     20  C   UNL A   1      46.253 -20.506 -39.295  0.00  0.00    +0.007 A 
ATOM     21  C   UNL A   1      46.476 -21.791 -39.750  0.00  0.00    -0.050 A 
ATOM     22  C   UNL A   1      46.786 -21.829 -41.140  0.00  0.00    -0.054 A 
ATOM     23  C   UNL A   1      46.792 -20.571 -41.700  0.00  0.00    -0.024 A 
ATOM     24  S   UNL A   1      46.427 -19.356 -40.553  0.00  0.00    -0.100 S 
ENDBRANCH  19  20
ENDBRANCH  17  19
ENDBRANCH  10  17
TORSDOF 3
ENDMDL
