@<TRIPOS>MOLECULE
*****
 23 26 0 0 0
SMALL
GASTEIGER

@<TRIPOS>ATOM
      1 CL          1.0151   -4.4888    0.0000 Cl      1  UNL1       -0.0822
      2 C           0.1490   -3.9888    0.0000 C.ar    1  UNL1        0.0603
      3 C          -0.7170   -4.4888    0.0000 C.ar    1  UNL1        0.0115
      4 C          -1.5830   -3.9888    0.0000 C.ar    1  UNL1        0.0024
      5 C          -1.5830   -2.9888    0.0000 C.ar    1  UNL1        0.0192
      6 C          -0.7170   -2.4888    0.0000 C.ar    1  UNL1        0.0829
      7 N          -0.7170   -1.4888    0.0000 N.ar    1  UNL1       -0.2499
      8 C           0.1490   -0.9888    0.0000 C.ar    1  UNL1        0.0562
      9 C           1.0151   -1.4888    0.0000 C.ar    1  UNL1        0.0063
     10 C           1.0151   -2.4888    0.0000 C.ar    1  UNL1        0.0651
     11 N           1.8811   -2.9888    0.0000 N.pl3   1  UNL1       -0.2325
     12 C           2.7471   -2.4888    0.0000 C.3     1  UNL1        0.1449
     13 C           3.6131   -2.9888    0.0000 C.ar    1  UNL1        0.0289
     14 C           4.5267   -2.5821    0.0000 C.ar    1  UNL1        0.0044
     15 C           5.1958   -3.3252    0.0000 C.ar    1  UNL1        0.0072
     16 C           4.6958   -4.1913    0.0000 C.ar    1  UNL1        0.0352
     17 S           3.7177   -3.9834    0.0000 S.2     1  UNL1       -0.0890
     18 C           0.1490   -2.9888    0.0000 C.ar    1  UNL1        0.0428
     19 C           1.9459   -1.1235    0.0000 C.3     1  UNL1        0.0289
     20 C           2.2407   -0.1679    0.0000 C.3     1  UNL1        0.0048
     21 C           1.6774    0.6583    0.0000 C.3     1  UNL1        0.0007
     22 C           0.6802    0.7331    0.0000 C.3     1  UNL1        0.0063
     23 C           0.0000   -0.0000    0.0000 C.3     1  UNL1        0.0455
@<TRIPOS>BOND
     1     1     2    1
     2     2     3   ar
     3     3     4   ar
     4     4     5   ar
     5     5     6   ar
     6     6     7   ar
     7     7     8   ar
     8     8     9   ar
     9     9    10   ar
    10    10    11    1
    11    11    12    1
    12    12    13    1
    13    13    14   ar
    14    14    15   ar
    15    15    16   ar
    16    16    17   ar
    17    13    17   ar
    18    10    18   ar
    19     2    18   ar
    20     6    18   ar
    21     9    19    1
    22    19    20    1
    23    20    21    1
    24    21    22    1
    25    22    23    1
    26     8    23    1
