REMARK  Name = cpd308.pdb
REMARK  6 active torsions:
REMARK  status: ('A' for Active; 'I' for Inactive)
REMARK    1  A    between atoms: C_1  and  O_2
REMARK    2  A    between atoms: O_2  and  C_3
REMARK    3  A    between atoms: C_12  and  O_13
REMARK    4  A    between atoms: N_19  and  C_20
REMARK    5  A    between atoms: C_20  and  C_21
REMARK    6  A    between atoms: C_21  and  N_22
REMARK                            x       y       z     vdW  Elec       q    Type
REMARK                         _______ _______ _______ _____ _____    ______ ____
ROOT
ATOM      1  C   UNL     1       2.929   2.773  -0.190  0.00  0.00    +0.162 A 
ATOM      2  C   UNL     1       1.641   3.083  -0.632  0.00  0.00    -0.016 A 
ATOM      3  C   UNL     1       0.695   2.064  -0.872  0.00  0.00    -0.053 A 
ATOM      4  C   UNL     1       1.029   0.708  -0.727  0.00  0.00    -0.026 A 
ATOM      5  C   UNL     1       2.347   0.406  -0.426  0.00  0.00    +0.016 A 
ATOM      6  C   UNL     1       3.246   1.428  -0.085  0.00  0.00    +0.167 A 
ATOM      7  O   UNL     1       4.414   0.937   0.489  0.00  0.00    -0.484 OA
ATOM      8  C   UNL     1       4.404  -0.401  -0.021  0.00  0.00    +0.116 C 
ATOM      9  C   UNL     1       5.320  -1.405   0.661  0.00  0.00    +0.015 C 
ATOM     10  C   UNL     1       5.259  -2.731  -0.130  0.00  0.00    +0.077 C 
ATOM     11  C   UNL     1       4.018  -2.931  -0.983  0.00  0.00    -0.059 C 
ATOM     12  C   UNL     1       2.965  -2.088  -0.992  0.00  0.00    -0.071 C 
ATOM     13  C   UNL     1       2.938  -0.912  -0.048  0.00  0.00    +0.056 C 
ATOM     14  C   UNL     1       2.270  -1.315   1.288  0.00  0.00    -0.023 C 
ATOM     15  C   UNL     1       0.812  -1.829   1.144  0.00  0.00    +0.000 C 
ATOM     16  N   UNL     1      -0.208  -0.863   0.697  0.00  0.00    -0.297 N 
ATOM     17  C   UNL     1      -0.026  -0.365  -0.678  0.00  0.00    +0.024 C 
ATOM     18  H   UNL     1      -0.072  -0.046   1.292  0.00  0.00    +0.000 HD
ENDROOT
BRANCH   1  20
ATOM     19  C   UNL     1       3.559   5.044   0.102  0.00  0.00    +0.079 C 
ATOM     20  O   UNL     1       3.899   3.666   0.159  0.00  0.00    -0.491 OA
ENDBRANCH   1  20
BRANCH  10  21
ATOM     21  O   UNL     1       6.374  -2.752  -1.019  0.00  0.00    -0.388 OA
ATOM     22  H   UNL     1       6.299  -2.018  -1.649  0.00  0.00    +0.000 HD
ENDBRANCH  10  21
BRANCH  16  23
ATOM     23  C   UNL     1      -1.579  -1.377   0.912  0.00  0.00    +0.012 C 
BRANCH  23  24
ATOM     24  C   UNL     1      -2.016  -2.585   0.042  0.00  0.00    +0.012 C 
BRANCH  24  25
ATOM     25  N   UNL     1      -3.373  -3.079   0.352  0.00  0.00    -0.297 N 
ATOM     26  C   UNL     1      -3.612  -4.371  -0.332  0.00  0.00    +0.022 C 
ATOM     27  C   UNL     1      -5.037  -4.888  -0.085  0.00  0.00    +0.060 C 
ATOM     28  O   UNL     1      -6.013  -3.937  -0.530  0.00  0.00    -0.377 OA
ATOM     29  C   UNL     1      -5.833  -2.696   0.165  0.00  0.00    +0.060 C 
ATOM     30  C   UNL     1      -4.424  -2.125  -0.066  0.00  0.00    +0.022 C 
ATOM     31  H   UNL     1      -3.423  -3.193   1.364  0.00  0.00    +0.000 HD
ENDBRANCH  24  25
ENDBRANCH  23  24
ENDBRANCH  16  23
TORSDOF 5
