MODEL 1
REMARK VINA RESULT:    -7.938      0.000      0.000
REMARK INTER + INTRA:         -10.604
REMARK INTER:                 -10.026
REMARK INTRA:                  -0.578
REMARK UNBOUND:                -0.578
REMARK  Name = cpd308.pdb
REMARK  6 active torsions:
REMARK  status: ('A' for Active; 'I' for Inactive)
REMARK    1  A    between atoms: C_1  and  O_2
REMARK    2  A    between atoms: O_2  and  C_3
REMARK    3  A    between atoms: C_12  and  O_13
REMARK    4  A    between atoms: N_19  and  C_20
REMARK    5  A    between atoms: C_20  and  C_21
REMARK    6  A    between atoms: C_21  and  N_22
REMARK                            x       y       z     vdW  Elec       q    Type
REMARK                         _______ _______ _______ _____ _____    ______ ____
ROOT
ATOM      1  C   UNL     1      39.529 -36.115 -31.067  0.00  0.00    +0.162 A 
ATOM      2  C   UNL     1      40.179 -37.067 -30.278  0.00  0.00    -0.016 A 
ATOM      3  C   UNL     1      39.458 -37.852 -29.354  0.00  0.00    -0.053 A 
ATOM      4  C   UNL     1      38.080 -37.669 -29.156  0.00  0.00    -0.026 A 
ATOM      5  C   UNL     1      37.473 -36.628 -29.840  0.00  0.00    +0.016 A 
ATOM      6  C   UNL     1      38.176 -35.929 -30.833  0.00  0.00    +0.167 A 
ATOM      7  O   UNL     1      37.339 -35.150 -31.625  0.00  0.00    -0.484 OA
ATOM      8  C   UNL     1      36.227 -34.989 -30.738  0.00  0.00    +0.116 C 
ATOM      9  C   UNL     1      34.923 -34.504 -31.350  0.00  0.00    +0.015 C 
ATOM     10  C   UNL     1      33.911 -34.265 -30.206  0.00  0.00    +0.077 C 
ATOM     11  C   UNL     1      34.190 -35.015 -28.915  0.00  0.00    -0.059 C 
ATOM     12  C   UNL     1      35.175 -35.924 -28.768  0.00  0.00    -0.071 C 
ATOM     13  C   UNL     1      36.018 -36.315 -29.957  0.00  0.00    +0.056 C 
ATOM     14  C   UNL     1      35.378 -37.515 -30.694  0.00  0.00    -0.023 C 
ATOM     15  C   UNL     1      35.197 -38.782 -29.815  0.00  0.00    +0.000 C 
ATOM     16  N   UNL     1      36.418 -39.465 -29.350  0.00  0.00    -0.297 N 
ATOM     17  C   UNL     1      37.246 -38.681 -28.416  0.00  0.00    +0.024 C 
ATOM     18  H   UNL     1      36.993 -39.571 -30.185  0.00  0.00    +0.000 HD
ENDROOT
BRANCH   1  20
ATOM     19  C   UNL     1      41.129 -35.966 -32.815  0.00  0.00    +0.079 C 
ATOM     20  O   UNL     1      40.095 -35.361 -32.052  0.00  0.00    -0.491 OA
ENDBRANCH   1  20
BRANCH  10  21
ATOM     21  O   UNL     1      33.944 -32.875 -29.887  0.00  0.00    -0.388 OA
ATOM     22  H   UNL     1      33.883 -32.763 -28.926  0.00  0.00    +0.000 HD
ENDBRANCH  10  21
BRANCH  16  23
ATOM     23  C   UNL     1      36.120 -40.811 -28.812  0.00  0.00    +0.012 C 
BRANCH  23  24
ATOM     24  C   UNL     1      34.680 -41.049 -28.285  0.00  0.00    +0.012 C 
BRANCH  24  25
ATOM     25  N   UNL     1      34.538 -40.834 -26.831  0.00  0.00    -0.297 N 
ATOM     26  C   UNL     1      33.833 -41.981 -26.213  0.00  0.00    +0.022 C 
ATOM     27  C   UNL     1      33.609 -41.766 -24.709  0.00  0.00    +0.060 C 
ATOM     28  O   UNL     1      32.856 -40.571 -24.467  0.00  0.00    -0.377 OA
ATOM     29  C   UNL     1      33.552 -39.441 -25.008  0.00  0.00    +0.060 C 
ATOM     30  C   UNL     1      33.785 -39.598 -26.520  0.00  0.00    +0.022 C 
ATOM     31  H   UNL     1      35.480 -40.743 -26.451  0.00  0.00    +0.000 HD
ENDBRANCH  24  25
ENDBRANCH  23  24
ENDBRANCH  16  23
TORSDOF 5
ENDMDL
MODEL 2
REMARK VINA RESULT:    -7.286      1.302      1.558
REMARK INTER + INTRA:          -9.780
REMARK INTER:                  -9.213
REMARK INTRA:                  -0.568
REMARK UNBOUND:                -0.578
REMARK  Name = cpd308.pdb
REMARK  6 active torsions:
REMARK  status: ('A' for Active; 'I' for Inactive)
REMARK    1  A    between atoms: C_1  and  O_2
REMARK    2  A    between atoms: O_2  and  C_3
REMARK    3  A    between atoms: C_12  and  O_13
REMARK    4  A    between atoms: N_19  and  C_20
REMARK    5  A    between atoms: C_20  and  C_21
REMARK    6  A    between atoms: C_21  and  N_22
REMARK                            x       y       z     vdW  Elec       q    Type
REMARK                         _______ _______ _______ _____ _____    ______ ____
ROOT
ATOM      1  C   UNL     1      38.553 -36.152 -31.053  0.00  0.00    +0.162 A 
ATOM      2  C   UNL     1      39.124 -37.027 -30.125  0.00  0.00    -0.016 A 
ATOM      3  C   UNL     1      38.362 -37.544 -29.057  0.00  0.00    -0.053 A 
ATOM      4  C   UNL     1      37.026 -37.160 -28.859  0.00  0.00    -0.026 A 
ATOM      5  C   UNL     1      36.513 -36.186 -29.699  0.00  0.00    +0.016 A 
ATOM      6  C   UNL     1      37.244 -35.762 -30.819  0.00  0.00    +0.167 A 
ATOM      7  O   UNL     1      36.468 -35.034 -31.715  0.00  0.00    -0.484 OA
ATOM      8  C   UNL     1      35.426 -34.585 -30.841  0.00  0.00    +0.116 C 
ATOM      9  C   UNL     1      34.160 -34.054 -31.494  0.00  0.00    +0.015 C 
ATOM     10  C   UNL     1      33.240 -33.498 -30.384  0.00  0.00    +0.077 C 
ATOM     11  C   UNL     1      33.490 -34.042 -28.988  0.00  0.00    -0.059 C 
ATOM     12  C   UNL     1      34.368 -35.027 -28.709  0.00  0.00    -0.071 C 
ATOM     13  C   UNL     1      35.101 -35.719 -29.831  0.00  0.00    +0.056 C 
ATOM     14  C   UNL     1      34.289 -36.939 -30.326  0.00  0.00    -0.023 C 
ATOM     15  C   UNL     1      34.004 -38.003 -29.232  0.00  0.00    +0.000 C 
ATOM     16  N   UNL     1      35.157 -38.742 -28.685  0.00  0.00    -0.297 N 
ATOM     17  C   UNL     1      36.116 -37.917 -27.928  0.00  0.00    +0.024 C 
ATOM     18  H   UNL     1      35.674 -39.061 -29.504  0.00  0.00    +0.000 HD
ENDROOT
BRANCH   1  20
ATOM     19  C   UNL     1      40.460 -35.115 -32.016  0.00  0.00    +0.079 C 
ATOM     20  O   UNL     1      39.156 -35.656 -32.171  0.00  0.00    -0.491 OA
ENDBRANCH   1  20
BRANCH  10  21
ATOM     21  O   UNL     1      33.451 -32.089 -30.318  0.00  0.00    -0.388 OA
ATOM     22  H   UNL     1      33.855 -31.783 -31.146  0.00  0.00    +0.000 HD
ENDBRANCH  10  21
BRANCH  16  23
ATOM     23  C   UNL     1      34.729 -39.927 -27.909  0.00  0.00    +0.012 C 
BRANCH  23  24
ATOM     24  C   UNL     1      33.521 -39.737 -26.953  0.00  0.00    +0.012 C 
BRANCH  24  25
ATOM     25  N   UNL     1      33.904 -39.307 -25.593  0.00  0.00    -0.297 N 
ATOM     26  C   UNL     1      33.372 -40.259 -24.590  0.00  0.00    +0.022 C 
ATOM     27  C   UNL     1      33.695 -39.812 -23.157  0.00  0.00    +0.060 C 
ATOM     28  O   UNL     1      33.161 -38.509 -22.892  0.00  0.00    -0.377 OA
ATOM     29  C   UNL     1      33.711 -37.562 -23.817  0.00  0.00    +0.060 C 
ATOM     30  C   UNL     1      33.397 -37.954 -25.271  0.00  0.00    +0.022 C 
ATOM     31  H   UNL     1      34.923 -39.286 -25.564  0.00  0.00    +0.000 HD
ENDBRANCH  24  25
ENDBRANCH  23  24
ENDBRANCH  16  23
TORSDOF 5
ENDMDL
MODEL 3
REMARK VINA RESULT:    -7.139     17.646     21.647
REMARK INTER + INTRA:          -9.596
REMARK INTER:                  -8.992
REMARK INTRA:                  -0.604
REMARK UNBOUND:                -0.578
REMARK  Name = cpd308.pdb
REMARK  6 active torsions:
REMARK  status: ('A' for Active; 'I' for Inactive)
REMARK    1  A    between atoms: C_1  and  O_2
REMARK    2  A    between atoms: O_2  and  C_3
REMARK    3  A    between atoms: C_12  and  O_13
REMARK    4  A    between atoms: N_19  and  C_20
REMARK    5  A    between atoms: C_20  and  C_21
REMARK    6  A    between atoms: C_21  and  N_22
REMARK                            x       y       z     vdW  Elec       q    Type
REMARK                         _______ _______ _______ _____ _____    ______ ____
ROOT
ATOM      1  C   UNL     1      41.482 -22.203 -36.909  0.00  0.00    +0.162 A 
ATOM      2  C   UNL     1      41.658 -22.171 -38.294  0.00  0.00    -0.016 A 
ATOM      3  C   UNL     1      42.620 -21.321 -38.880  0.00  0.00    -0.053 A 
ATOM      4  C   UNL     1      43.392 -20.444 -38.102  0.00  0.00    -0.026 A 
ATOM      5  C   UNL     1      43.111 -20.381 -36.747  0.00  0.00    +0.016 A 
ATOM      6  C   UNL     1      42.232 -21.307 -36.164  0.00  0.00    +0.167 A 
ATOM      7  O   UNL     1      42.308 -21.308 -34.775  0.00  0.00    -0.484 OA
ATOM      8  C   UNL     1      42.844 -19.999 -34.549  0.00  0.00    +0.116 C 
ATOM      9  C   UNL     1      43.432 -19.723 -33.174  0.00  0.00    +0.015 C 
ATOM     10  C   UNL     1      43.816 -18.228 -33.103  0.00  0.00    +0.077 C 
ATOM     11  C   UNL     1      44.041 -17.544 -34.440  0.00  0.00    -0.059 C 
ATOM     12  C   UNL     1      44.028 -18.184 -35.627  0.00  0.00    -0.071 C 
ATOM     13  C   UNL     1      43.873 -19.684 -35.669  0.00  0.00    +0.056 C 
ATOM     14  C   UNL     1      45.260 -20.365 -35.613  0.00  0.00    -0.023 C 
ATOM     15  C   UNL     1      46.216 -19.965 -36.769  0.00  0.00    +0.000 C 
ATOM     16  N   UNL     1      45.846 -20.384 -38.133  0.00  0.00    -0.297 N 
ATOM     17  C   UNL     1      44.615 -19.764 -38.656  0.00  0.00    +0.024 C 
ATOM     18  H   UNL     1      45.625 -21.376 -38.050  0.00  0.00    +0.000 HD
ENDROOT
BRANCH   1  20
ATOM     19  C   UNL     1      39.257 -22.810 -36.343  0.00  0.00    +0.079 C 
ATOM     20  O   UNL     1      40.654 -23.039 -36.220  0.00  0.00    -0.491 OA
ENDBRANCH   1  20
BRANCH  10  21
ATOM     21  O   UNL     1      42.743 -17.539 -32.466  0.00  0.00    -0.388 OA
ATOM     22  H   UNL     1      41.918 -17.710 -32.947  0.00  0.00    +0.000 HD
ENDBRANCH  10  21
BRANCH  16  23
ATOM     23  C   UNL     1      46.975 -20.231 -39.077  0.00  0.00    +0.012 C 
BRANCH  23  24
ATOM     24  C   UNL     1      46.634 -19.696 -40.493  0.00  0.00    +0.012 C 
BRANCH  24  25
ATOM     25  N   UNL     1      46.807 -20.699 -41.563  0.00  0.00    -0.297 N 
ATOM     26  C   UNL     1      45.536 -21.423 -41.792  0.00  0.00    +0.022 C 
ATOM     27  C   UNL     1      45.691 -22.520 -42.856  0.00  0.00    +0.060 C 
ATOM     28  O   UNL     1      46.704 -23.462 -42.479  0.00  0.00    -0.377 OA
ATOM     29  C   UNL     1      47.957 -22.785 -42.310  0.00  0.00    +0.060 C 
ATOM     30  C   UNL     1      47.859 -21.687 -41.238  0.00  0.00    +0.022 C 
ATOM     31  H   UNL     1      47.088 -20.191 -42.402  0.00  0.00    +0.000 HD
ENDBRANCH  24  25
ENDBRANCH  23  24
ENDBRANCH  16  23
TORSDOF 5
ENDMDL
MODEL 4
REMARK VINA RESULT:    -7.049      1.756      2.799
REMARK INTER + INTRA:          -9.482
REMARK INTER:                  -8.953
REMARK INTRA:                  -0.529
REMARK UNBOUND:                -0.578
REMARK  Name = cpd308.pdb
REMARK  6 active torsions:
REMARK  status: ('A' for Active; 'I' for Inactive)
REMARK    1  A    between atoms: C_1  and  O_2
REMARK    2  A    between atoms: O_2  and  C_3
REMARK    3  A    between atoms: C_12  and  O_13
REMARK    4  A    between atoms: N_19  and  C_20
REMARK    5  A    between atoms: C_20  and  C_21
REMARK    6  A    between atoms: C_21  and  N_22
REMARK                            x       y       z     vdW  Elec       q    Type
REMARK                         _______ _______ _______ _____ _____    ______ ____
ROOT
ATOM      1  C   UNL     1      37.476 -36.532 -29.938  0.00  0.00    +0.162 A 
ATOM      2  C   UNL     1      37.565 -37.288 -28.766  0.00  0.00    -0.016 A 
ATOM      3  C   UNL     1      36.487 -37.342 -27.858  0.00  0.00    -0.053 A 
ATOM      4  C   UNL     1      35.314 -36.600 -28.071  0.00  0.00    -0.026 A 
ATOM      5  C   UNL     1      35.291 -35.745 -29.161  0.00  0.00    +0.016 A 
ATOM      6  C   UNL     1      36.323 -35.784 -30.111  0.00  0.00    +0.167 A 
ATOM      7  O   UNL     1      35.992 -35.107 -31.281  0.00  0.00    -0.484 OA
ATOM      8  C   UNL     1      34.979 -34.225 -30.785  0.00  0.00    +0.116 C 
ATOM      9  C   UNL     1      34.083 -33.556 -31.816  0.00  0.00    +0.015 C 
ATOM     10  C   UNL     1      33.168 -32.550 -31.083  0.00  0.00    +0.077 C 
ATOM     11  C   UNL     1      32.963 -32.808 -29.600  0.00  0.00    -0.059 C 
ATOM     12  C   UNL     1      33.435 -33.892 -28.951  0.00  0.00    -0.071 C 
ATOM     13  C   UNL     1      34.137 -34.981 -29.722  0.00  0.00    +0.056 C 
ATOM     14  C   UNL     1      33.115 -36.039 -30.203  0.00  0.00    -0.023 C 
ATOM     15  C   UNL     1      32.315 -36.720 -29.060  0.00  0.00    +0.000 C 
ATOM     16  N   UNL     1      33.064 -37.580 -28.126  0.00  0.00    -0.297 N 
ATOM     17  C   UNL     1      34.054 -36.873 -27.294  0.00  0.00    +0.024 C 
ATOM     18  H   UNL     1      33.615 -38.196 -28.723  0.00  0.00    +0.000 HD
ENDROOT
BRANCH   1  20
ATOM     19  C   UNL     1      39.709 -36.956 -30.627  0.00  0.00    +0.079 C 
ATOM     20  O   UNL     1      38.409 -36.470 -30.931  0.00  0.00    -0.491 OA
ENDBRANCH   1  20
BRANCH  10  21
ATOM     21  O   UNL     1      33.771 -31.262 -31.194  0.00  0.00    -0.388 OA
ATOM     22  H   UNL     1      34.545 -31.316 -31.776  0.00  0.00    +0.000 HD
ENDBRANCH  10  21
BRANCH  16  23
ATOM     23  C   UNL     1      32.158 -38.412 -27.303  0.00  0.00    +0.012 C 
BRANCH  23  24
ATOM     24  C   UNL     1      32.818 -39.290 -26.207  0.00  0.00    +0.012 C 
BRANCH  24  25
ATOM     25  N   UNL     1      33.137 -40.660 -26.657  0.00  0.00    -0.297 N 
ATOM     26  C   UNL     1      33.283 -41.557 -25.487  0.00  0.00    +0.022 C 
ATOM     27  C   UNL     1      33.677 -42.980 -25.911  0.00  0.00    +0.060 C 
ATOM     28  O   UNL     1      34.905 -42.975 -26.651  0.00  0.00    -0.377 OA
ATOM     29  C   UNL     1      34.762 -42.156 -27.820  0.00  0.00    +0.060 C 
ATOM     30  C   UNL     1      34.386 -40.712 -27.448  0.00  0.00    +0.022 C 
ATOM     31  H   UNL     1      32.365 -40.964 -27.249  0.00  0.00    +0.000 HD
ENDBRANCH  24  25
ENDBRANCH  23  24
ENDBRANCH  16  23
TORSDOF 5
ENDMDL
MODEL 5
REMARK VINA RESULT:    -6.979     20.441     22.339
REMARK INTER + INTRA:          -9.393
REMARK INTER:                  -8.913
REMARK INTRA:                  -0.480
REMARK UNBOUND:                -0.578
REMARK  Name = cpd308.pdb
REMARK  6 active torsions:
REMARK  status: ('A' for Active; 'I' for Inactive)
REMARK    1  A    between atoms: C_1  and  O_2
REMARK    2  A    between atoms: O_2  and  C_3
REMARK    3  A    between atoms: C_12  and  O_13
REMARK    4  A    between atoms: N_19  and  C_20
REMARK    5  A    between atoms: C_20  and  C_21
REMARK    6  A    between atoms: C_21  and  N_22
REMARK                            x       y       z     vdW  Elec       q    Type
REMARK                         _______ _______ _______ _____ _____    ______ ____
ROOT
ATOM      1  C   UNL     1      42.134 -20.862 -38.918  0.00  0.00    +0.162 A 
ATOM      2  C   UNL     1      42.137 -20.547 -37.558  0.00  0.00    -0.016 A 
ATOM      3  C   UNL     1      43.351 -20.344 -36.867  0.00  0.00    -0.053 A 
ATOM      4  C   UNL     1      44.591 -20.503 -37.505  0.00  0.00    -0.026 A 
ATOM      5  C   UNL     1      44.579 -20.953 -38.815  0.00  0.00    +0.016 A 
ATOM      6  C   UNL     1      43.369 -21.045 -39.520  0.00  0.00    +0.167 A 
ATOM      7  O   UNL     1      43.563 -21.200 -40.889  0.00  0.00    -0.484 OA
ATOM      8  C   UNL     1      44.890 -21.737 -40.897  0.00  0.00    +0.116 C 
ATOM      9  C   UNL     1      45.635 -21.711 -42.223  0.00  0.00    +0.015 C 
ATOM     10  C   UNL     1      46.974 -22.460 -42.040  0.00  0.00    +0.077 C 
ATOM     11  C   UNL     1      47.481 -22.561 -40.612  0.00  0.00    -0.059 C 
ATOM     12  C   UNL     1      46.895 -21.956 -39.559  0.00  0.00    -0.071 C 
ATOM     13  C   UNL     1      45.715 -21.043 -39.780  0.00  0.00    +0.056 C 
ATOM     14  C   UNL     1      46.199 -19.591 -40.011  0.00  0.00    -0.023 C 
ATOM     15  C   UNL     1      47.030 -19.001 -38.839  0.00  0.00    +0.000 C 
ATOM     16  N   UNL     1      46.335 -18.776 -37.559  0.00  0.00    -0.297 N 
ATOM     17  C   UNL     1      45.869 -20.002 -36.886  0.00  0.00    +0.024 C 
ATOM     18  H   UNL     1      45.484 -18.274 -37.809  0.00  0.00    +0.000 HD
ENDROOT
BRANCH   1  20
ATOM     19  C   UNL     1      39.765 -20.910 -39.079  0.00  0.00    +0.079 C 
ATOM     20  O   UNL     1      41.033 -20.995 -39.713  0.00  0.00    -0.491 OA
ENDBRANCH   1  20
BRANCH  10  21
ATOM     21  O   UNL     1      46.785 -23.796 -42.502  0.00  0.00    -0.388 OA
ATOM     22  H   UNL     1      46.890 -24.412 -41.761  0.00  0.00    +0.000 HD
ENDBRANCH  10  21
BRANCH  16  23
ATOM     23  C   UNL     1      47.132 -17.925 -36.647  0.00  0.00    +0.012 C 
BRANCH  23  24
ATOM     24  C   UNL     1      46.346 -16.907 -35.779  0.00  0.00    +0.012 C 
BRANCH  24  25
ATOM     25  N   UNL     1      45.333 -17.530 -34.904  0.00  0.00    -0.297 N 
ATOM     26  C   UNL     1      43.991 -16.985 -35.212  0.00  0.00    +0.022 C 
ATOM     27  C   UNL     1      42.916 -17.563 -34.279  0.00  0.00    +0.060 C 
ATOM     28  O   UNL     1      43.226 -17.290 -32.907  0.00  0.00    -0.377 OA
ATOM     29  C   UNL     1      44.499 -17.861 -32.574  0.00  0.00    +0.060 C 
ATOM     30  C   UNL     1      45.615 -17.300 -33.470  0.00  0.00    +0.022 C 
ATOM     31  H   UNL     1      45.364 -18.534 -35.083  0.00  0.00    +0.000 HD
ENDBRANCH  24  25
ENDBRANCH  23  24
ENDBRANCH  16  23
TORSDOF 5
ENDMDL
MODEL 6
REMARK VINA RESULT:    -6.853     20.145     24.910
REMARK INTER + INTRA:          -9.234
REMARK INTER:                  -8.863
REMARK INTRA:                  -0.370
REMARK UNBOUND:                -0.578
REMARK  Name = cpd308.pdb
REMARK  6 active torsions:
REMARK  status: ('A' for Active; 'I' for Inactive)
REMARK    1  A    between atoms: C_1  and  O_2
REMARK    2  A    between atoms: O_2  and  C_3
REMARK    3  A    between atoms: C_12  and  O_13
REMARK    4  A    between atoms: N_19  and  C_20
REMARK    5  A    between atoms: C_20  and  C_21
REMARK    6  A    between atoms: C_21  and  N_22
REMARK                            x       y       z     vdW  Elec       q    Type
REMARK                         _______ _______ _______ _____ _____    ______ ____
ROOT
ATOM      1  C   UNL     1      42.405 -20.562 -39.262  0.00  0.00    +0.162 A 
ATOM      2  C   UNL     1      42.505 -19.749 -38.131  0.00  0.00    -0.016 A 
ATOM      3  C   UNL     1      43.744 -19.191 -37.750  0.00  0.00    -0.053 A 
ATOM      4  C   UNL     1      44.923 -19.476 -38.459  0.00  0.00    -0.026 A 
ATOM      5  C   UNL     1      44.837 -20.395 -39.492  0.00  0.00    +0.016 A 
ATOM      6  C   UNL     1      43.585 -20.855 -39.926  0.00  0.00    +0.167 A 
ATOM      7  O   UNL     1      43.657 -21.508 -41.153  0.00  0.00    -0.484 OA
ATOM      8  C   UNL     1      45.037 -21.890 -41.156  0.00  0.00    +0.116 C 
ATOM      9  C   UNL     1      45.631 -22.312 -42.491  0.00  0.00    +0.015 C 
ATOM     10  C   UNL     1      47.071 -22.814 -42.242  0.00  0.00    +0.077 C 
ATOM     11  C   UNL     1      47.731 -22.313 -40.969  0.00  0.00    -0.059 C 
ATOM     12  C   UNL     1      47.179 -21.402 -40.141  0.00  0.00    -0.071 C 
ATOM     13  C   UNL     1      45.870 -20.751 -40.510  0.00  0.00    +0.056 C 
ATOM     14  C   UNL     1      46.126 -19.464 -41.330  0.00  0.00    -0.023 C 
ATOM     15  C   UNL     1      46.985 -18.399 -40.596  0.00  0.00    +0.000 C 
ATOM     16  N   UNL     1      46.402 -17.759 -39.403  0.00  0.00    -0.297 N 
ATOM     17  C   UNL     1      46.177 -18.667 -38.264  0.00  0.00    +0.024 C 
ATOM     18  H   UNL     1      45.469 -17.468 -39.694  0.00  0.00    +0.000 HD
ENDROOT
BRANCH   1  20
ATOM     19  C   UNL     1      40.439 -21.845 -38.902  0.00  0.00    +0.079 C 
ATOM     20  O   UNL     1      41.257 -21.085 -39.780  0.00  0.00    -0.491 OA
ENDBRANCH   1  20
BRANCH  10  21
ATOM     21  O   UNL     1      47.018 -24.236 -42.143  0.00  0.00    -0.388 OA
ATOM     22  H   UNL     1      47.644 -24.536 -41.464  0.00  0.00    +0.000 HD
ENDBRANCH  10  21
BRANCH  16  23
ATOM     23  C   UNL     1      47.165 -16.557 -38.998  0.00  0.00    +0.012 C 
BRANCH  23  24
ATOM     24  C   UNL     1      47.547 -15.562 -40.125  0.00  0.00    +0.012 C 
BRANCH  24  25
ATOM     25  N   UNL     1      48.157 -14.311 -39.629  0.00  0.00    -0.297 N 
ATOM     26  C   UNL     1      49.458 -14.080 -40.300  0.00  0.00    +0.022 C 
ATOM     27  C   UNL     1      50.154 -12.820 -39.765  0.00  0.00    +0.060 C 
ATOM     28  O   UNL     1      50.369 -12.912 -38.351  0.00  0.00    -0.377 OA
ATOM     29  C   UNL     1      49.112 -13.078 -37.680  0.00  0.00    +0.060 C 
ATOM     30  C   UNL     1      48.381 -14.340 -38.167  0.00  0.00    +0.022 C 
ATOM     31  H   UNL     1      47.504 -13.558 -39.842  0.00  0.00    +0.000 HD
ENDBRANCH  24  25
ENDBRANCH  23  24
ENDBRANCH  16  23
TORSDOF 5
ENDMDL
MODEL 7
REMARK VINA RESULT:    -6.843     17.307     21.028
REMARK INTER + INTRA:          -9.222
REMARK INTER:                  -8.512
REMARK INTRA:                  -0.710
REMARK UNBOUND:                -0.578
REMARK  Name = cpd308.pdb
REMARK  6 active torsions:
REMARK  status: ('A' for Active; 'I' for Inactive)
REMARK    1  A    between atoms: C_1  and  O_2
REMARK    2  A    between atoms: O_2  and  C_3
REMARK    3  A    between atoms: C_12  and  O_13
REMARK    4  A    between atoms: N_19  and  C_20
REMARK    5  A    between atoms: C_20  and  C_21
REMARK    6  A    between atoms: C_21  and  N_22
REMARK                            x       y       z     vdW  Elec       q    Type
REMARK                         _______ _______ _______ _____ _____    ______ ____
ROOT
ATOM      1  C   UNL     1      46.259 -20.427 -40.750  0.00  0.00    +0.162 A 
ATOM      2  C   UNL     1      45.150 -21.132 -41.223  0.00  0.00    -0.016 A 
ATOM      3  C   UNL     1      44.049 -21.395 -40.382  0.00  0.00    -0.053 A 
ATOM      4  C   UNL     1      44.051 -21.006 -39.032  0.00  0.00    -0.026 A 
ATOM      5  C   UNL     1      45.211 -20.434 -38.537  0.00  0.00    +0.016 A 
ATOM      6  C   UNL     1      46.253 -20.082 -39.408  0.00  0.00    +0.167 A 
ATOM      7  O   UNL     1      47.187 -19.245 -38.807  0.00  0.00    -0.484 OA
ATOM      8  C   UNL     1      46.958 -19.559 -37.428  0.00  0.00    +0.116 C 
ATOM      9  C   UNL     1      47.520 -18.591 -36.399  0.00  0.00    +0.015 C 
ATOM     10  C   UNL     1      47.286 -19.189 -34.994  0.00  0.00    +0.077 C 
ATOM     11  C   UNL     1      46.170 -20.215 -34.894  0.00  0.00    -0.059 C 
ATOM     12  C   UNL     1      45.341 -20.530 -35.911  0.00  0.00    -0.071 C 
ATOM     13  C   UNL     1      45.436 -19.778 -37.215  0.00  0.00    +0.056 C 
ATOM     14  C   UNL     1      44.507 -18.541 -37.186  0.00  0.00    -0.023 C 
ATOM     15  C   UNL     1      43.009 -18.872 -36.948  0.00  0.00    +0.000 C 
ATOM     16  N   UNL     1      42.303 -19.624 -38.002  0.00  0.00    -0.297 N 
ATOM     17  C   UNL     1      42.790 -21.000 -38.210  0.00  0.00    +0.024 C 
ATOM     18  H   UNL     1      42.527 -19.133 -38.867  0.00  0.00    +0.000 HD
ENDROOT
BRANCH   1  20
ATOM     19  C   UNL     1      48.221 -21.058 -41.931  0.00  0.00    +0.079 C 
ATOM     20  O   UNL     1      47.340 -20.037 -41.485  0.00  0.00    -0.491 OA
ENDBRANCH   1  20
BRANCH  10  21
ATOM     21  O   UNL     1      48.487 -19.852 -34.603  0.00  0.00    -0.388 OA
ATOM     22  H   UNL     1      48.591 -19.791 -33.641  0.00  0.00    +0.000 HD
ENDBRANCH  10  21
BRANCH  16  23
ATOM     23  C   UNL     1      40.836 -19.590 -37.809  0.00  0.00    +0.012 C 
BRANCH  23  24
ATOM     24  C   UNL     1      40.328 -19.380 -36.358  0.00  0.00    +0.012 C 
BRANCH  24  25
ATOM     25  N   UNL     1      39.854 -20.621 -35.711  0.00  0.00    -0.297 N 
ATOM     26  C   UNL     1      40.891 -21.140 -34.789  0.00  0.00    +0.022 C 
ATOM     27  C   UNL     1      40.461 -22.465 -34.142  0.00  0.00    +0.060 C 
ATOM     28  O   UNL     1      40.183 -23.457 -35.139  0.00  0.00    -0.377 OA
ATOM     29  C   UNL     1      39.140 -22.995 -36.006  0.00  0.00    +0.060 C 
ATOM     30  C   UNL     1      39.530 -21.676 -36.695  0.00  0.00    +0.022 C 
ATOM     31  H   UNL     1      39.005 -20.382 -35.200  0.00  0.00    +0.000 HD
ENDBRANCH  24  25
ENDBRANCH  23  24
ENDBRANCH  16  23
TORSDOF 5
ENDMDL
MODEL 8
REMARK VINA RESULT:    -6.769     18.557     21.841
REMARK INTER + INTRA:          -9.128
REMARK INTER:                  -8.480
REMARK INTRA:                  -0.647
REMARK UNBOUND:                -0.578
REMARK  Name = cpd308.pdb
REMARK  6 active torsions:
REMARK  status: ('A' for Active; 'I' for Inactive)
REMARK    1  A    between atoms: C_1  and  O_2
REMARK    2  A    between atoms: O_2  and  C_3
REMARK    3  A    between atoms: C_12  and  O_13
REMARK    4  A    between atoms: N_19  and  C_20
REMARK    5  A    between atoms: C_20  and  C_21
REMARK    6  A    between atoms: C_21  and  N_22
REMARK                            x       y       z     vdW  Elec       q    Type
REMARK                         _______ _______ _______ _____ _____    ______ ____
ROOT
ATOM      1  C   UNL     1      44.145 -19.468 -34.442  0.00  0.00    +0.162 A 
ATOM      2  C   UNL     1      45.454 -19.267 -34.885  0.00  0.00    -0.016 A 
ATOM      3  C   UNL     1      45.807 -19.507 -36.230  0.00  0.00    -0.053 A 
ATOM      4  C   UNL     1      44.873 -20.004 -37.153  0.00  0.00    -0.026 A 
ATOM      5  C   UNL     1      43.616 -20.334 -36.671  0.00  0.00    +0.016 A 
ATOM      6  C   UNL     1      43.249 -19.989 -35.362  0.00  0.00    +0.167 A 
ATOM      7  O   UNL     1      41.879 -20.101 -35.149  0.00  0.00    -0.484 OA
ATOM      8  C   UNL     1      41.536 -21.028 -36.185  0.00  0.00    +0.116 C 
ATOM      9  C   UNL     1      40.063 -21.146 -36.545  0.00  0.00    +0.015 C 
ATOM     10  C   UNL     1      39.906 -22.291 -37.571  0.00  0.00    +0.077 C 
ATOM     11  C   UNL     1      41.156 -22.646 -38.356  0.00  0.00    -0.059 C 
ATOM     12  C   UNL     1      42.316 -21.962 -38.277  0.00  0.00    -0.071 C 
ATOM     13  C   UNL     1      42.393 -20.710 -37.440  0.00  0.00    +0.056 C 
ATOM     14  C   UNL     1      42.025 -19.474 -38.294  0.00  0.00    -0.023 C 
ATOM     15  C   UNL     1      42.934 -19.260 -39.534  0.00  0.00    +0.000 C 
ATOM     16  N   UNL     1      44.347 -18.917 -39.290  0.00  0.00    -0.297 N 
ATOM     17  C   UNL     1      45.135 -19.977 -38.635  0.00  0.00    +0.024 C 
ATOM     18  H   UNL     1      44.318 -18.155 -38.613  0.00  0.00    +0.000 HD
ENDROOT
BRANCH   1  20
ATOM     19  C   UNL     1      43.676 -17.830 -32.788  0.00  0.00    +0.079 C 
ATOM     20  O   UNL     1      43.663 -19.190 -33.197  0.00  0.00    -0.491 OA
ENDBRANCH   1  20
BRANCH  10  21
ATOM     21  O   UNL     1      39.527 -23.462 -36.851  0.00  0.00    -0.388 OA
ATOM     22  H   UNL     1      38.611 -23.694 -37.070  0.00  0.00    +0.000 HD
ENDBRANCH  10  21
BRANCH  16  23
ATOM     23  C   UNL     1      45.011 -18.428 -40.519  0.00  0.00    +0.012 C 
BRANCH  23  24
ATOM     24  C   UNL     1      44.654 -19.155 -41.842  0.00  0.00    +0.012 C 
BRANCH  24  25
ATOM     25  N   UNL     1      45.680 -20.122 -42.282  0.00  0.00    -0.297 N 
ATOM     26  C   UNL     1      45.270 -21.499 -41.920  0.00  0.00    +0.022 C 
ATOM     27  C   UNL     1      46.341 -22.530 -42.305  0.00  0.00    +0.060 C 
ATOM     28  O   UNL     1      47.591 -22.233 -41.670  0.00  0.00    -0.377 OA
ATOM     29  C   UNL     1      48.033 -20.925 -42.056  0.00  0.00    +0.060 C 
ATOM     30  C   UNL     1      47.002 -19.851 -41.674  0.00  0.00    +0.022 C 
ATOM     31  H   UNL     1      45.764 -20.026 -43.294  0.00  0.00    +0.000 HD
ENDBRANCH  24  25
ENDBRANCH  23  24
ENDBRANCH  16  23
TORSDOF 5
ENDMDL
MODEL 9
REMARK VINA RESULT:    -6.653     18.062     21.746
REMARK INTER + INTRA:          -8.981
REMARK INTER:                  -8.524
REMARK INTRA:                  -0.457
REMARK UNBOUND:                -0.578
REMARK  Name = cpd308.pdb
REMARK  6 active torsions:
REMARK  status: ('A' for Active; 'I' for Inactive)
REMARK    1  A    between atoms: C_1  and  O_2
REMARK    2  A    between atoms: O_2  and  C_3
REMARK    3  A    between atoms: C_12  and  O_13
REMARK    4  A    between atoms: N_19  and  C_20
REMARK    5  A    between atoms: C_20  and  C_21
REMARK    6  A    between atoms: C_21  and  N_22
REMARK                            x       y       z     vdW  Elec       q    Type
REMARK                         _______ _______ _______ _____ _____    ______ ____
ROOT
ATOM      1  C   UNL     1      43.375 -17.045 -40.709  0.00  0.00    +0.162 A 
ATOM      2  C   UNL     1      42.302 -17.002 -39.816  0.00  0.00    -0.016 A 
ATOM      3  C   UNL     1      42.152 -17.988 -38.819  0.00  0.00    -0.053 A 
ATOM      4  C   UNL     1      43.040 -19.072 -38.723  0.00  0.00    -0.026 A 
ATOM      5  C   UNL     1      44.016 -19.183 -39.700  0.00  0.00    +0.016 A 
ATOM      6  C   UNL     1      44.220 -18.140 -40.617  0.00  0.00    +0.167 A 
ATOM      7  O   UNL     1      45.421 -18.268 -41.307  0.00  0.00    -0.484 OA
ATOM      8  C   UNL     1      45.645 -19.676 -41.166  0.00  0.00    +0.116 C 
ATOM      9  C   UNL     1      47.047 -20.183 -41.464  0.00  0.00    +0.015 C 
ATOM     10  C   UNL     1      47.029 -21.726 -41.391  0.00  0.00    +0.077 C 
ATOM     11  C   UNL     1      45.901 -22.332 -40.574  0.00  0.00    -0.059 C 
ATOM     12  C   UNL     1      45.019 -21.610 -39.852  0.00  0.00    -0.071 C 
ATOM     13  C   UNL     1      45.182 -20.114 -39.750  0.00  0.00    +0.056 C 
ATOM     14  C   UNL     1      46.071 -19.755 -38.537  0.00  0.00    -0.023 C 
ATOM     15  C   UNL     1      45.525 -20.257 -37.173  0.00  0.00    +0.000 C 
ATOM     16  N   UNL     1      44.270 -19.658 -36.682  0.00  0.00    -0.297 N 
ATOM     17  C   UNL     1      43.083 -19.953 -37.503  0.00  0.00    +0.024 C 
ATOM     18  H   UNL     1      44.409 -18.652 -36.772  0.00  0.00    +0.000 HD
ENDROOT
BRANCH   1  20
ATOM     19  C   UNL     1      43.150 -14.804 -41.462  0.00  0.00    +0.079 C 
ATOM     20  O   UNL     1      43.677 -16.109 -41.654  0.00  0.00    -0.491 OA
ENDBRANCH   1  20
BRANCH  10  21
ATOM     21  O   UNL     1      46.880 -22.217 -42.722  0.00  0.00    -0.388 OA
ATOM     22  H   UNL     1      47.381 -23.042 -42.820  0.00  0.00    +0.000 HD
ENDBRANCH  10  21
BRANCH  16  23
ATOM     23  C   UNL     1      44.036 -19.973 -35.255  0.00  0.00    +0.012 C 
BRANCH  23  24
ATOM     24  C   UNL     1      42.574 -19.865 -34.747  0.00  0.00    +0.012 C 
BRANCH  24  25
ATOM     25  N   UNL     1      42.051 -21.121 -34.173  0.00  0.00    -0.297 N 
ATOM     26  C   UNL     1      40.939 -21.635 -35.006  0.00  0.00    +0.022 C 
ATOM     27  C   UNL     1      40.325 -22.910 -34.407  0.00  0.00    +0.060 C 
ATOM     28  O   UNL     1      39.842 -22.672 -33.078  0.00  0.00    -0.377 OA
ATOM     29  C   UNL     1      40.919 -22.228 -32.243  0.00  0.00    +0.060 C 
ATOM     30  C   UNL     1      41.558 -20.940 -32.790  0.00  0.00    +0.022 C 
ATOM     31  H   UNL     1      42.825 -21.784 -34.157  0.00  0.00    +0.000 HD
ENDBRANCH  24  25
ENDBRANCH  23  24
ENDBRANCH  16  23
TORSDOF 5
ENDMDL
MODEL 10
REMARK VINA RESULT:    -6.616     16.168     20.146
REMARK INTER + INTRA:          -8.935
REMARK INTER:                  -8.467
REMARK INTRA:                  -0.469
REMARK UNBOUND:                -0.578
REMARK  Name = cpd308.pdb
REMARK  6 active torsions:
REMARK  status: ('A' for Active; 'I' for Inactive)
REMARK    1  A    between atoms: C_1  and  O_2
REMARK    2  A    between atoms: O_2  and  C_3
REMARK    3  A    between atoms: C_12  and  O_13
REMARK    4  A    between atoms: N_19  and  C_20
REMARK    5  A    between atoms: C_20  and  C_21
REMARK    6  A    between atoms: C_21  and  N_22
REMARK                            x       y       z     vdW  Elec       q    Type
REMARK                         _______ _______ _______ _____ _____    ______ ____
ROOT
ATOM      1  C   UNL     1      37.601 -18.466 -32.673  0.00  0.00    +0.162 A 
ATOM      2  C   UNL     1      38.473 -17.457 -32.257  0.00  0.00    -0.016 A 
ATOM      3  C   UNL     1      39.865 -17.680 -32.209  0.00  0.00    -0.053 A 
ATOM      4  C   UNL     1      40.416 -18.933 -32.524  0.00  0.00    -0.026 A 
ATOM      5  C   UNL     1      39.533 -19.965 -32.798  0.00  0.00    +0.016 A 
ATOM      6  C   UNL     1      38.163 -19.702 -32.948  0.00  0.00    +0.167 A 
ATOM      7  O   UNL     1      37.479 -20.767 -33.525  0.00  0.00    -0.484 OA
ATOM      8  C   UNL     1      38.370 -21.842 -33.208  0.00  0.00    +0.116 C 
ATOM      9  C   UNL     1      38.183 -23.141 -33.977  0.00  0.00    +0.015 C 
ATOM     10  C   UNL     1      39.142 -24.197 -33.382  0.00  0.00    +0.077 C 
ATOM     11  C   UNL     1      40.340 -23.647 -32.629  0.00  0.00    -0.059 C 
ATOM     12  C   UNL     1      40.648 -22.336 -32.555  0.00  0.00    -0.071 C 
ATOM     13  C   UNL     1      39.831 -21.330 -33.326  0.00  0.00    +0.056 C 
ATOM     14  C   UNL     1      40.431 -21.123 -34.737  0.00  0.00    -0.023 C 
ATOM     15  C   UNL     1      41.902 -20.627 -34.739  0.00  0.00    +0.000 C 
ATOM     16  N   UNL     1      42.164 -19.274 -34.214  0.00  0.00    -0.297 N 
ATOM     17  C   UNL     1      41.890 -19.107 -32.775  0.00  0.00    +0.024 C 
ATOM     18  H   UNL     1      41.483 -18.676 -34.681  0.00  0.00    +0.000 HD
ENDROOT
BRANCH   1  20
ATOM     19  C   UNL     1      35.809 -17.636 -33.991  0.00  0.00    +0.079 C 
ATOM     20  O   UNL     1      36.253 -18.347 -32.845  0.00  0.00    -0.491 OA
ENDBRANCH   1  20
BRANCH  10  21
ATOM     21  O   UNL     1      38.395 -24.977 -32.450  0.00  0.00    -0.388 OA
ATOM     22  H   UNL     1      38.787 -24.887 -31.567  0.00  0.00    +0.000 HD
ENDBRANCH  10  21
BRANCH  16  23
ATOM     23  C   UNL     1      43.522 -18.804 -34.566  0.00  0.00    +0.012 C 
BRANCH  23  24
ATOM     24  C   UNL     1      44.711 -19.668 -34.070  0.00  0.00    +0.012 C 
BRANCH  24  25
ATOM     25  N   UNL     1      45.790 -19.822 -35.067  0.00  0.00    -0.297 N 
ATOM     26  C   UNL     1      46.776 -18.726 -34.921  0.00  0.00    +0.022 C 
ATOM     27  C   UNL     1      47.882 -18.814 -35.982  0.00  0.00    +0.060 C 
ATOM     28  O   UNL     1      47.331 -18.773 -37.305  0.00  0.00    -0.377 OA
ATOM     29  C   UNL     1      46.416 -19.863 -37.483  0.00  0.00    +0.060 C 
ATOM     30  C   UNL     1      45.275 -19.809 -36.454  0.00  0.00    +0.022 C 
ATOM     31  H   UNL     1      46.228 -20.726 -34.892  0.00  0.00    +0.000 HD
ENDBRANCH  24  25
ENDBRANCH  23  24
ENDBRANCH  16  23
TORSDOF 5
ENDMDL
MODEL 11
REMARK VINA RESULT:    -6.519     20.084     24.247
REMARK INTER + INTRA:          -8.813
REMARK INTER:                  -8.128
REMARK INTRA:                  -0.684
REMARK UNBOUND:                -0.578
REMARK  Name = cpd308.pdb
REMARK  6 active torsions:
REMARK  status: ('A' for Active; 'I' for Inactive)
REMARK    1  A    between atoms: C_1  and  O_2
REMARK    2  A    between atoms: O_2  and  C_3
REMARK    3  A    between atoms: C_12  and  O_13
REMARK    4  A    between atoms: N_19  and  C_20
REMARK    5  A    between atoms: C_20  and  C_21
REMARK    6  A    between atoms: C_21  and  N_22
REMARK                            x       y       z     vdW  Elec       q    Type
REMARK                         _______ _______ _______ _____ _____    ______ ____
ROOT
ATOM      1  C   UNL     1      42.435 -20.425 -39.178  0.00  0.00    +0.162 A 
ATOM      2  C   UNL     1      42.487 -19.591 -38.059  0.00  0.00    -0.016 A 
ATOM      3  C   UNL     1      43.710 -19.033 -37.630  0.00  0.00    -0.053 A 
ATOM      4  C   UNL     1      44.918 -19.336 -38.278  0.00  0.00    -0.026 A 
ATOM      5  C   UNL     1      44.876 -20.273 -39.297  0.00  0.00    +0.016 A 
ATOM      6  C   UNL     1      43.643 -20.736 -39.782  0.00  0.00    +0.167 A 
ATOM      7  O   UNL     1      43.769 -21.411 -40.991  0.00  0.00    -0.484 OA
ATOM      8  C   UNL     1      45.145 -21.800 -40.923  0.00  0.00    +0.116 C 
ATOM      9  C   UNL     1      45.799 -22.249 -42.220  0.00  0.00    +0.015 C 
ATOM     10  C   UNL     1      47.223 -22.754 -41.895  0.00  0.00    +0.077 C 
ATOM     11  C   UNL     1      47.825 -22.233 -40.601  0.00  0.00    -0.059 C 
ATOM     12  C   UNL     1      47.240 -21.304 -39.817  0.00  0.00    -0.071 C 
ATOM     13  C   UNL     1      45.954 -20.653 -40.259  0.00  0.00    +0.056 C 
ATOM     14  C   UNL     1      46.255 -19.383 -41.089  0.00  0.00    -0.023 C 
ATOM     15  C   UNL     1      47.085 -18.309 -40.335  0.00  0.00    +0.000 C 
ATOM     16  N   UNL     1      46.450 -17.644 -39.183  0.00  0.00    -0.297 N 
ATOM     17  C   UNL     1      46.167 -18.530 -38.039  0.00  0.00    +0.024 C 
ATOM     18  H   UNL     1      45.533 -17.354 -39.522  0.00  0.00    +0.000 HD
ENDROOT
BRANCH   1  20
ATOM     19  C   UNL     1      40.675 -22.013 -39.042  0.00  0.00    +0.079 C 
ATOM     20  O   UNL     1      41.310 -20.952 -39.741  0.00  0.00    -0.491 OA
ENDBRANCH   1  20
BRANCH  10  21
ATOM     21  O   UNL     1      47.157 -24.174 -41.772  0.00  0.00    -0.388 OA
ATOM     22  H   UNL     1      46.239 -24.466 -41.885  0.00  0.00    +0.000 HD
ENDBRANCH  10  21
BRANCH  16  23
ATOM     23  C   UNL     1      47.200 -16.439 -38.765  0.00  0.00    +0.012 C 
BRANCH  23  24
ATOM     24  C   UNL     1      46.496 -15.072 -38.973  0.00  0.00    +0.012 C 
BRANCH  24  25
ATOM     25  N   UNL     1      45.174 -15.179 -39.624  0.00  0.00    -0.297 N 
ATOM     26  C   UNL     1      45.280 -14.803 -41.053  0.00  0.00    +0.022 C 
ATOM     27  C   UNL     1      43.913 -14.840 -41.752  0.00  0.00    +0.060 C 
ATOM     28  O   UNL     1      42.982 -13.962 -41.106  0.00  0.00    -0.377 OA
ATOM     29  C   UNL     1      42.823 -14.348 -39.735  0.00  0.00    +0.060 C 
ATOM     30  C   UNL     1      44.164 -14.308 -38.983  0.00  0.00    +0.022 C 
ATOM     31  H   UNL     1      44.874 -16.148 -39.529  0.00  0.00    +0.000 HD
ENDBRANCH  24  25
ENDBRANCH  23  24
ENDBRANCH  16  23
TORSDOF 5
ENDMDL
MODEL 12
REMARK VINA RESULT:    -6.473     19.816     22.851
REMARK INTER + INTRA:          -8.754
REMARK INTER:                  -8.177
REMARK INTRA:                  -0.577
REMARK UNBOUND:                -0.578
REMARK  Name = cpd308.pdb
REMARK  6 active torsions:
REMARK  status: ('A' for Active; 'I' for Inactive)
REMARK    1  A    between atoms: C_1  and  O_2
REMARK    2  A    between atoms: O_2  and  C_3
REMARK    3  A    between atoms: C_12  and  O_13
REMARK    4  A    between atoms: N_19  and  C_20
REMARK    5  A    between atoms: C_20  and  C_21
REMARK    6  A    between atoms: C_21  and  N_22
REMARK                            x       y       z     vdW  Elec       q    Type
REMARK                         _______ _______ _______ _____ _____    ______ ____
ROOT
ATOM      1  C   UNL     1      45.744 -16.580 -40.815  0.00  0.00    +0.162 A 
ATOM      2  C   UNL     1      44.421 -16.175 -40.624  0.00  0.00    -0.016 A 
ATOM      3  C   UNL     1      43.409 -17.119 -40.349  0.00  0.00    -0.053 A 
ATOM      4  C   UNL     1      43.685 -18.495 -40.309  0.00  0.00    -0.026 A 
ATOM      5  C   UNL     1      44.969 -18.897 -40.639  0.00  0.00    +0.016 A 
ATOM      6  C   UNL     1      45.987 -17.945 -40.803  0.00  0.00    +0.167 A 
ATOM      7  O   UNL     1      47.253 -18.519 -40.813  0.00  0.00    -0.484 OA
ATOM      8  C   UNL     1      46.921 -19.859 -41.194  0.00  0.00    +0.116 C 
ATOM      9  C   UNL     1      47.983 -20.923 -40.966  0.00  0.00    +0.015 C 
ATOM     10  C   UNL     1      47.476 -22.251 -41.573  0.00  0.00    +0.077 C 
ATOM     11  C   UNL     1      45.971 -22.363 -41.743  0.00  0.00    -0.059 C 
ATOM     12  C   UNL     1      45.091 -21.439 -41.304  0.00  0.00    -0.071 C 
ATOM     13  C   UNL     1      45.582 -20.252 -40.514  0.00  0.00    +0.056 C 
ATOM     14  C   UNL     1      45.589 -20.583 -39.003  0.00  0.00    -0.023 C 
ATOM     15  C   UNL     1      44.202 -20.982 -38.429  0.00  0.00    +0.000 C 
ATOM     16  N   UNL     1      43.156 -19.944 -38.399  0.00  0.00    -0.297 N 
ATOM     17  C   UNL     1      42.708 -19.480 -39.724  0.00  0.00    +0.024 C 
ATOM     18  H   UNL     1      43.605 -19.132 -37.976  0.00  0.00    +0.000 HD
ENDROOT
BRANCH   1  20
ATOM     19  C   UNL     1      47.301 -15.061 -39.861  0.00  0.00    +0.079 C 
ATOM     20  O   UNL     1      46.820 -15.763 -40.999  0.00  0.00    -0.491 OA
ENDBRANCH   1  20
BRANCH  10  21
ATOM     21  O   UNL     1      48.045 -22.372 -42.876  0.00  0.00    -0.388 OA
ATOM     22  H   UNL     1      47.666 -21.694 -43.458  0.00  0.00    +0.000 HD
ENDBRANCH  10  21
BRANCH  16  23
ATOM     23  C   UNL     1      42.013 -20.345 -37.549  0.00  0.00    +0.012 C 
BRANCH  23  24
ATOM     24  C   UNL     1      42.348 -20.832 -36.114  0.00  0.00    +0.012 C 
BRANCH  24  25
ATOM     25  N   UNL     1      42.789 -19.752 -35.209  0.00  0.00    -0.297 N 
ATOM     26  C   UNL     1      44.225 -19.916 -34.884  0.00  0.00    +0.022 C 
ATOM     27  C   UNL     1      44.707 -18.846 -33.893  0.00  0.00    +0.060 C 
ATOM     28  O   UNL     1      43.946 -18.890 -32.679  0.00  0.00    -0.377 OA
ATOM     29  C   UNL     1      42.559 -18.675 -32.968  0.00  0.00    +0.060 C 
ATOM     30  C   UNL     1      42.020 -19.734 -33.944  0.00  0.00    +0.022 C 
ATOM     31  H   UNL     1      42.629 -18.871 -35.697  0.00  0.00    +0.000 HD
ENDBRANCH  24  25
ENDBRANCH  23  24
ENDBRANCH  16  23
TORSDOF 5
ENDMDL
MODEL 13
REMARK VINA RESULT:    -6.405      1.990      2.704
REMARK INTER + INTRA:          -8.669
REMARK INTER:                  -8.242
REMARK INTRA:                  -0.427
REMARK UNBOUND:                -0.578
REMARK  Name = cpd308.pdb
REMARK  6 active torsions:
REMARK  status: ('A' for Active; 'I' for Inactive)
REMARK    1  A    between atoms: C_1  and  O_2
REMARK    2  A    between atoms: O_2  and  C_3
REMARK    3  A    between atoms: C_12  and  O_13
REMARK    4  A    between atoms: N_19  and  C_20
REMARK    5  A    between atoms: C_20  and  C_21
REMARK    6  A    between atoms: C_21  and  N_22
REMARK                            x       y       z     vdW  Elec       q    Type
REMARK                         _______ _______ _______ _____ _____    ______ ____
ROOT
ATOM      1  C   UNL     1      37.746 -36.145 -30.929  0.00  0.00    +0.162 A 
ATOM      2  C   UNL     1      38.141 -36.944 -29.855  0.00  0.00    -0.016 A 
ATOM      3  C   UNL     1      37.271 -37.174 -28.768  0.00  0.00    -0.053 A 
ATOM      4  C   UNL     1      36.006 -36.568 -28.703  0.00  0.00    -0.026 A 
ATOM      5  C   UNL     1      35.681 -35.666 -29.703  0.00  0.00    +0.016 A 
ATOM      6  C   UNL     1      36.508 -35.531 -30.829  0.00  0.00    +0.167 A 
ATOM      7  O   UNL     1      35.886 -34.839 -31.863  0.00  0.00    -0.484 OA
ATOM      8  C   UNL     1      34.899 -34.111 -31.123  0.00  0.00    +0.116 C 
ATOM      9  C   UNL     1      33.754 -33.501 -31.917  0.00  0.00    +0.015 C 
ATOM     10  C   UNL     1      32.896 -32.652 -30.953  0.00  0.00    +0.077 C 
ATOM     11  C   UNL     1      33.010 -33.010 -29.482  0.00  0.00    -0.059 C 
ATOM     12  C   UNL     1      33.713 -34.062 -29.014  0.00  0.00    -0.071 C 
ATOM     13  C   UNL     1      34.365 -35.018 -29.981  0.00  0.00    +0.056 C 
ATOM     14  C   UNL     1      33.389 -36.163 -30.341  0.00  0.00    -0.023 C 
ATOM     15  C   UNL     1      32.903 -36.995 -29.123  0.00  0.00    +0.000 C 
ATOM     16  N   UNL     1      33.907 -37.807 -28.411  0.00  0.00    -0.297 N 
ATOM     17  C   UNL     1      34.957 -37.031 -27.727  0.00  0.00    +0.024 C 
ATOM     18  H   UNL     1      34.395 -38.320 -29.144  0.00  0.00    +0.000 HD
ENDROOT
BRANCH   1  20
ATOM     19  C   UNL     1      39.873 -35.959 -31.969  0.00  0.00    +0.079 C 
ATOM     20  O   UNL     1      38.457 -35.919 -32.071  0.00  0.00    -0.491 OA
ENDBRANCH   1  20
BRANCH  10  21
ATOM     21  O   UNL     1      33.324 -31.297 -31.079  0.00  0.00    -0.388 OA
ATOM     22  H   UNL     1      33.237 -31.015 -32.003  0.00  0.00    +0.000 HD
ENDBRANCH  10  21
BRANCH  16  23
ATOM     23  C   UNL     1      33.272 -38.783 -27.498  0.00  0.00    +0.012 C 
BRANCH  23  24
ATOM     24  C   UNL     1      34.046 -40.102 -27.239  0.00  0.00    +0.012 C 
BRANCH  24  25
ATOM     25  N   UNL     1      33.260 -41.318 -27.530  0.00  0.00    -0.297 N 
ATOM     26  C   UNL     1      33.596 -41.829 -28.879  0.00  0.00    +0.022 C 
ATOM     27  C   UNL     1      32.752 -43.059 -29.246  0.00  0.00    +0.060 C 
ATOM     28  O   UNL     1      31.352 -42.755 -29.197  0.00  0.00    -0.377 OA
ATOM     29  C   UNL     1      30.997 -42.313 -27.880  0.00  0.00    +0.060 C 
ATOM     30  C   UNL     1      31.803 -41.069 -27.472  0.00  0.00    +0.022 C 
ATOM     31  H   UNL     1      33.500 -42.005 -26.815  0.00  0.00    +0.000 HD
ENDBRANCH  24  25
ENDBRANCH  23  24
ENDBRANCH  16  23
TORSDOF 5
ENDMDL
MODEL 14
REMARK VINA RESULT:    -6.372     16.816     20.555
REMARK INTER + INTRA:          -8.627
REMARK INTER:                  -8.064
REMARK INTRA:                  -0.563
REMARK UNBOUND:                -0.578
REMARK  Name = cpd308.pdb
REMARK  6 active torsions:
REMARK  status: ('A' for Active; 'I' for Inactive)
REMARK    1  A    between atoms: C_1  and  O_2
REMARK    2  A    between atoms: O_2  and  C_3
REMARK    3  A    between atoms: C_12  and  O_13
REMARK    4  A    between atoms: N_19  and  C_20
REMARK    5  A    between atoms: C_20  and  C_21
REMARK    6  A    between atoms: C_21  and  N_22
REMARK                            x       y       z     vdW  Elec       q    Type
REMARK                         _______ _______ _______ _____ _____    ______ ____
ROOT
ATOM      1  C   UNL     1      41.339 -21.902 -37.449  0.00  0.00    +0.162 A 
ATOM      2  C   UNL     1      42.244 -20.920 -37.857  0.00  0.00    -0.016 A 
ATOM      3  C   UNL     1      42.541 -19.821 -37.024  0.00  0.00    -0.053 A 
ATOM      4  C   UNL     1      41.902 -19.649 -35.785  0.00  0.00    -0.026 A 
ATOM      5  C   UNL     1      40.904 -20.551 -35.454  0.00  0.00    +0.016 A 
ATOM      6  C   UNL     1      40.696 -21.695 -36.239  0.00  0.00    +0.167 A 
ATOM      7  O   UNL     1      39.894 -22.636 -35.603  0.00  0.00    -0.484 OA
ATOM      8  C   UNL     1      39.203 -21.794 -34.673  0.00  0.00    +0.116 C 
ATOM      9  C   UNL     1      38.488 -22.481 -33.521  0.00  0.00    +0.015 C 
ATOM     10  C   UNL     1      37.700 -21.410 -32.733  0.00  0.00    +0.077 C 
ATOM     11  C   UNL     1      38.191 -19.982 -32.893  0.00  0.00    -0.059 C 
ATOM     12  C   UNL     1      39.304 -19.639 -33.575  0.00  0.00    -0.071 C 
ATOM     13  C   UNL     1      40.190 -20.714 -34.153  0.00  0.00    +0.056 C 
ATOM     14  C   UNL     1      41.266 -21.130 -33.122  0.00  0.00    -0.023 C 
ATOM     15  C   UNL     1      42.186 -19.970 -32.655  0.00  0.00    +0.000 C 
ATOM     16  N   UNL     1      43.091 -19.375 -33.656  0.00  0.00    -0.297 N 
ATOM     17  C   UNL     1      42.414 -18.673 -34.760  0.00  0.00    +0.024 C 
ATOM     18  H   UNL     1      43.553 -20.171 -34.095  0.00  0.00    +0.000 HD
ENDROOT
BRANCH   1  20
ATOM     19  C   UNL     1      40.661 -22.919 -39.486  0.00  0.00    +0.079 C 
ATOM     20  O   UNL     1      41.036 -23.049 -38.122  0.00  0.00    -0.491 OA
ENDBRANCH   1  20
BRANCH  10  21
ATOM     21  O   UNL     1      36.354 -21.435 -33.205  0.00  0.00    -0.388 OA
ATOM     22  H   UNL     1      36.346 -21.300 -34.166  0.00  0.00    +0.000 HD
ENDBRANCH  10  21
BRANCH  16  23
ATOM     23  C   UNL     1      44.124 -18.525 -33.022  0.00  0.00    +0.012 C 
BRANCH  23  24
ATOM     24  C   UNL     1      44.375 -17.136 -33.666  0.00  0.00    +0.012 C 
BRANCH  24  25
ATOM     25  N   UNL     1      45.693 -17.016 -34.322  0.00  0.00    -0.297 N 
ATOM     26  C   UNL     1      45.534 -16.445 -35.679  0.00  0.00    +0.022 C 
ATOM     27  C   UNL     1      46.877 -16.362 -36.420  0.00  0.00    +0.060 C 
ATOM     28  O   UNL     1      47.487 -17.656 -36.526  0.00  0.00    -0.377 OA
ATOM     29  C   UNL     1      47.701 -18.199 -35.216  0.00  0.00    +0.060 C 
ATOM     30  C   UNL     1      46.380 -18.321 -34.438  0.00  0.00    +0.022 C 
ATOM     31  H   UNL     1      46.260 -16.402 -33.738  0.00  0.00    +0.000 HD
ENDBRANCH  24  25
ENDBRANCH  23  24
ENDBRANCH  16  23
TORSDOF 5
ENDMDL
MODEL 15
REMARK VINA RESULT:    -6.363     17.787     21.515
REMARK INTER + INTRA:          -8.615
REMARK INTER:                  -8.140
REMARK INTRA:                  -0.475
REMARK UNBOUND:                -0.578
REMARK  Name = cpd308.pdb
REMARK  6 active torsions:
REMARK  status: ('A' for Active; 'I' for Inactive)
REMARK    1  A    between atoms: C_1  and  O_2
REMARK    2  A    between atoms: O_2  and  C_3
REMARK    3  A    between atoms: C_12  and  O_13
REMARK    4  A    between atoms: N_19  and  C_20
REMARK    5  A    between atoms: C_20  and  C_21
REMARK    6  A    between atoms: C_21  and  N_22
REMARK                            x       y       z     vdW  Elec       q    Type
REMARK                         _______ _______ _______ _____ _____    ______ ____
ROOT
ATOM      1  C   UNL     1      46.009 -17.171 -38.669  0.00  0.00    +0.162 A 
ATOM      2  C   UNL     1      44.859 -16.389 -38.537  0.00  0.00    -0.016 A 
ATOM      3  C   UNL     1      43.594 -16.901 -38.896  0.00  0.00    -0.053 A 
ATOM      4  C   UNL     1      43.454 -18.186 -39.443  0.00  0.00    -0.026 A 
ATOM      5  C   UNL     1      44.614 -18.898 -39.701  0.00  0.00    +0.016 A 
ATOM      6  C   UNL     1      45.851 -18.423 -39.241  0.00  0.00    +0.167 A 
ATOM      7  O   UNL     1      46.847 -19.393 -39.300  0.00  0.00    -0.484 OA
ATOM      8  C   UNL     1      46.298 -20.258 -40.300  0.00  0.00    +0.116 C 
ATOM      9  C   UNL     1      46.898 -21.651 -40.410  0.00  0.00    +0.015 C 
ATOM     10  C   UNL     1      46.265 -22.356 -41.630  0.00  0.00    +0.077 C 
ATOM     11  C   UNL     1      44.921 -21.810 -42.081  0.00  0.00    -0.059 C 
ATOM     12  C   UNL     1      44.237 -20.852 -41.422  0.00  0.00    -0.071 C 
ATOM     13  C   UNL     1      44.759 -20.327 -40.108  0.00  0.00    +0.056 C 
ATOM     14  C   UNL     1      44.196 -21.167 -38.937  0.00  0.00    -0.023 C 
ATOM     15  C   UNL     1      42.646 -21.182 -38.848  0.00  0.00    +0.000 C 
ATOM     16  N   UNL     1      41.971 -19.913 -38.523  0.00  0.00    -0.297 N 
ATOM     17  C   UNL     1      42.111 -18.860 -39.544  0.00  0.00    +0.024 C 
ATOM     18  H   UNL     1      42.468 -19.555 -37.707  0.00  0.00    +0.000 HD
ENDROOT
BRANCH   1  20
ATOM     19  C   UNL     1      47.402 -16.198 -37.009  0.00  0.00    +0.079 C 
ATOM     20  O   UNL     1      47.269 -16.824 -38.277  0.00  0.00    -0.491 OA
ENDBRANCH   1  20
BRANCH  10  21
ATOM     21  O   UNL     1      47.160 -22.197 -42.729  0.00  0.00    -0.388 OA
ATOM     22  H   UNL     1      48.014 -22.603 -42.512  0.00  0.00    +0.000 HD
ENDBRANCH  10  21
BRANCH  16  23
ATOM     23  C   UNL     1      40.554 -20.126 -38.153  0.00  0.00    +0.012 C 
BRANCH  23  24
ATOM     24  C   UNL     1      40.127 -21.584 -37.836  0.00  0.00    +0.012 C 
BRANCH  24  25
ATOM     25  N   UNL     1      39.810 -21.813 -36.412  0.00  0.00    -0.297 N 
ATOM     26  C   UNL     1      41.056 -21.832 -35.611  0.00  0.00    +0.022 C 
ATOM     27  C   UNL     1      40.774 -22.130 -34.131  0.00  0.00    +0.060 C 
ATOM     28  O   UNL     1      40.103 -23.388 -33.979  0.00  0.00    -0.377 OA
ATOM     29  C   UNL     1      38.865 -23.367 -34.702  0.00  0.00    +0.060 C 
ATOM     30  C   UNL     1      39.095 -23.090 -36.197  0.00  0.00    +0.022 C 
ATOM     31  H   UNL     1      39.204 -21.048 -36.116  0.00  0.00    +0.000 HD
ENDBRANCH  24  25
ENDBRANCH  23  24
ENDBRANCH  16  23
TORSDOF 5
ENDMDL
MODEL 16
REMARK VINA RESULT:    -6.288     16.648     20.332
REMARK INTER + INTRA:          -8.520
REMARK INTER:                  -8.091
REMARK INTRA:                  -0.429
REMARK UNBOUND:                -0.578
REMARK  Name = cpd308.pdb
REMARK  6 active torsions:
REMARK  status: ('A' for Active; 'I' for Inactive)
REMARK    1  A    between atoms: C_1  and  O_2
REMARK    2  A    between atoms: O_2  and  C_3
REMARK    3  A    between atoms: C_12  and  O_13
REMARK    4  A    between atoms: N_19  and  C_20
REMARK    5  A    between atoms: C_20  and  C_21
REMARK    6  A    between atoms: C_21  and  N_22
REMARK                            x       y       z     vdW  Elec       q    Type
REMARK                         _______ _______ _______ _____ _____    ______ ____
ROOT
ATOM      1  C   UNL     1      42.312 -18.400 -33.474  0.00  0.00    +0.162 A 
ATOM      2  C   UNL     1      43.485 -18.725 -34.161  0.00  0.00    -0.016 A 
ATOM      3  C   UNL     1      43.497 -19.759 -35.121  0.00  0.00    -0.053 A 
ATOM      4  C   UNL     1      42.352 -20.529 -35.380  0.00  0.00    -0.026 A 
ATOM      5  C   UNL     1      41.235 -20.293 -34.594  0.00  0.00    +0.016 A 
ATOM      6  C   UNL     1      41.204 -19.194 -33.723  0.00  0.00    +0.167 A 
ATOM      7  O   UNL     1      39.921 -18.922 -33.259  0.00  0.00    -0.484 OA
ATOM      8  C   UNL     1      39.307 -20.202 -33.445  0.00  0.00    +0.116 C 
ATOM      9  C   UNL     1      37.788 -20.249 -33.406  0.00  0.00    +0.015 C 
ATOM     10  C   UNL     1      37.348 -21.729 -33.484  0.00  0.00    +0.077 C 
ATOM     11  C   UNL     1      38.361 -22.685 -34.089  0.00  0.00    -0.059 C 
ATOM     12  C   UNL     1      39.531 -22.297 -34.637  0.00  0.00    -0.071 C 
ATOM     13  C   UNL     1      39.851 -20.828 -34.758  0.00  0.00    +0.056 C 
ATOM     14  C   UNL     1      39.336 -20.278 -36.109  0.00  0.00    -0.023 C 
ATOM     15  C   UNL     1      39.930 -20.987 -37.356  0.00  0.00    +0.000 C 
ATOM     16  N   UNL     1      41.372 -20.818 -37.612  0.00  0.00    -0.297 N 
ATOM     17  C   UNL     1      42.253 -21.415 -36.593  0.00  0.00    +0.024 C 
ATOM     18  H   UNL     1      41.533 -19.814 -37.542  0.00  0.00    +0.000 HD
ENDROOT
BRANCH   1  20
ATOM     19  C   UNL     1      43.078 -16.298 -32.679  0.00  0.00    +0.079 C 
ATOM     20  O   UNL     1      42.152 -17.371 -32.594  0.00  0.00    -0.491 OA
ENDBRANCH   1  20
BRANCH  10  21
ATOM     21  O   UNL     1      37.109 -22.176 -32.150  0.00  0.00    -0.388 OA
ATOM     22  H   UNL     1      36.583 -21.513 -31.676  0.00  0.00    +0.000 HD
ENDBRANCH  10  21
BRANCH  16  23
ATOM     23  C   UNL     1      41.740 -21.259 -38.975  0.00  0.00    +0.012 C 
BRANCH  23  24
ATOM     24  C   UNL     1      42.904 -20.498 -39.664  0.00  0.00    +0.012 C 
BRANCH  24  25
ATOM     25  N   UNL     1      44.072 -21.351 -39.968  0.00  0.00    -0.297 N 
ATOM     26  C   UNL     1      45.225 -20.952 -39.128  0.00  0.00    +0.022 C 
ATOM     27  C   UNL     1      46.479 -21.775 -39.459  0.00  0.00    +0.060 C 
ATOM     28  O   UNL     1      46.837 -21.632 -40.840  0.00  0.00    -0.377 OA
ATOM     29  C   UNL     1      45.752 -22.069 -41.670  0.00  0.00    +0.060 C 
ATOM     30  C   UNL     1      44.474 -21.261 -41.389  0.00  0.00    +0.022 C 
ATOM     31  H   UNL     1      43.797 -22.312 -39.769  0.00  0.00    +0.000 HD
ENDBRANCH  24  25
ENDBRANCH  23  24
ENDBRANCH  16  23
TORSDOF 5
ENDMDL
MODEL 17
REMARK VINA RESULT:    -6.231     17.016     20.530
REMARK INTER + INTRA:          -8.449
REMARK INTER:                  -7.999
REMARK INTRA:                  -0.450
REMARK UNBOUND:                -0.578
REMARK  Name = cpd308.pdb
REMARK  6 active torsions:
REMARK  status: ('A' for Active; 'I' for Inactive)
REMARK    1  A    between atoms: C_1  and  O_2
REMARK    2  A    between atoms: O_2  and  C_3
REMARK    3  A    between atoms: C_12  and  O_13
REMARK    4  A    between atoms: N_19  and  C_20
REMARK    5  A    between atoms: C_20  and  C_21
REMARK    6  A    between atoms: C_21  and  N_22
REMARK                            x       y       z     vdW  Elec       q    Type
REMARK                         _______ _______ _______ _____ _____    ______ ____
ROOT
ATOM      1  C   UNL     1      44.333 -20.030 -40.314  0.00  0.00    +0.162 A 
ATOM      2  C   UNL     1      43.212 -20.864 -40.317  0.00  0.00    -0.016 A 
ATOM      3  C   UNL     1      42.615 -21.275 -39.107  0.00  0.00    -0.053 A 
ATOM      4  C   UNL     1      43.155 -20.907 -37.864  0.00  0.00    -0.026 A 
ATOM      5  C   UNL     1      44.345 -20.199 -37.871  0.00  0.00    +0.016 A 
ATOM      6  C   UNL     1      44.867 -19.706 -39.077  0.00  0.00    +0.167 A 
ATOM      7  O   UNL     1      45.871 -18.765 -38.875  0.00  0.00    -0.484 OA
ATOM      8  C   UNL     1      46.292 -19.124 -37.553  0.00  0.00    +0.116 C 
ATOM      9  C   UNL     1      47.132 -18.106 -36.798  0.00  0.00    +0.015 C 
ATOM     10  C   UNL     1      47.591 -18.748 -35.470  0.00  0.00    +0.077 C 
ATOM     11  C   UNL     1      46.745 -19.908 -34.974  0.00  0.00    -0.059 C 
ATOM     12  C   UNL     1      45.600 -20.312 -35.561  0.00  0.00    -0.071 C 
ATOM     13  C   UNL     1      45.043 -19.537 -36.729  0.00  0.00    +0.056 C 
ATOM     14  C   UNL     1      44.087 -18.429 -36.227  0.00  0.00    -0.023 C 
ATOM     15  C   UNL     1      42.883 -18.950 -35.398  0.00  0.00    +0.000 C 
ATOM     16  N   UNL     1      41.880 -19.772 -36.099  0.00  0.00    -0.297 N 
ATOM     17  C   UNL     1      42.377 -21.072 -36.585  0.00  0.00    +0.024 C 
ATOM     18  H   UNL     1      41.655 -19.245 -36.943  0.00  0.00    +0.000 HD
ENDROOT
BRANCH   1  20
ATOM     19  C   UNL     1      44.403 -19.832 -42.679  0.00  0.00    +0.079 C 
ATOM     20  O   UNL     1      44.944 -19.495 -41.410  0.00  0.00    -0.491 OA
ENDBRANCH   1  20
BRANCH  10  21
ATOM     21  O   UNL     1      48.908 -19.257 -35.671  0.00  0.00    -0.388 OA
ATOM     22  H   UNL     1      48.856 -20.117 -36.118  0.00  0.00    +0.000 HD
ENDBRANCH  10  21
BRANCH  16  23
ATOM     23  C   UNL     1      40.644 -19.927 -35.300  0.00  0.00    +0.012 C 
BRANCH  23  24
ATOM     24  C   UNL     1      40.823 -20.182 -33.780  0.00  0.00    +0.012 C 
BRANCH  24  25
ATOM     25  N   UNL     1      39.867 -21.161 -33.226  0.00  0.00    -0.297 N 
ATOM     26  C   UNL     1      39.797 -22.355 -34.101  0.00  0.00    +0.022 C 
ATOM     27  C   UNL     1      38.765 -23.371 -33.591  0.00  0.00    +0.060 C 
ATOM     28  O   UNL     1      37.462 -22.781 -33.504  0.00  0.00    -0.377 OA
ATOM     29  C   UNL     1      37.497 -21.657 -32.614  0.00  0.00    +0.060 C 
ATOM     30  C   UNL     1      38.505 -20.598 -33.092  0.00  0.00    +0.022 C 
ATOM     31  H   UNL     1      40.205 -21.414 -32.298  0.00  0.00    +0.000 HD
ENDBRANCH  24  25
ENDBRANCH  23  24
ENDBRANCH  16  23
TORSDOF 5
ENDMDL
MODEL 18
REMARK VINA RESULT:    -6.159     17.746     21.360
REMARK INTER + INTRA:          -8.357
REMARK INTER:                  -7.998
REMARK INTRA:                  -0.359
REMARK UNBOUND:                -0.578
REMARK  Name = cpd308.pdb
REMARK  6 active torsions:
REMARK  status: ('A' for Active; 'I' for Inactive)
REMARK    1  A    between atoms: C_1  and  O_2
REMARK    2  A    between atoms: O_2  and  C_3
REMARK    3  A    between atoms: C_12  and  O_13
REMARK    4  A    between atoms: N_19  and  C_20
REMARK    5  A    between atoms: C_20  and  C_21
REMARK    6  A    between atoms: C_21  and  N_22
REMARK                            x       y       z     vdW  Elec       q    Type
REMARK                         _______ _______ _______ _____ _____    ______ ____
ROOT
ATOM      1  C   UNL     1      45.983 -19.710 -36.368  0.00  0.00    +0.162 A 
ATOM      2  C   UNL     1      45.042 -18.768 -35.946  0.00  0.00    -0.016 A 
ATOM      3  C   UNL     1      43.964 -18.402 -36.778  0.00  0.00    -0.053 A 
ATOM      4  C   UNL     1      43.828 -18.927 -38.073  0.00  0.00    -0.026 A 
ATOM      5  C   UNL     1      44.842 -19.751 -38.534  0.00  0.00    +0.016 A 
ATOM      6  C   UNL     1      45.848 -20.191 -37.661  0.00  0.00    +0.167 A 
ATOM      7  O   UNL     1      46.587 -21.243 -38.190  0.00  0.00    -0.484 OA
ATOM      8  C   UNL     1      46.347 -21.044 -39.588  0.00  0.00    +0.116 C 
ATOM      9  C   UNL     1      46.675 -22.203 -40.516  0.00  0.00    +0.015 C 
ATOM     10  C   UNL     1      46.479 -21.727 -41.973  0.00  0.00    +0.077 C 
ATOM     11  C   UNL     1      45.559 -20.532 -42.156  0.00  0.00    -0.059 C 
ATOM     12  C   UNL     1      44.852 -19.964 -41.157  0.00  0.00    -0.071 C 
ATOM     13  C   UNL     1      44.878 -20.576 -39.778  0.00  0.00    +0.056 C 
ATOM     14  C   UNL     1      43.745 -21.619 -39.635  0.00  0.00    -0.023 C 
ATOM     15  C   UNL     1      42.319 -21.048 -39.864  0.00  0.00    +0.000 C 
ATOM     16  N   UNL     1      41.813 -20.071 -38.883  0.00  0.00    -0.297 N 
ATOM     17  C   UNL     1      42.546 -18.793 -38.850  0.00  0.00    +0.024 C 
ATOM     18  H   UNL     1      41.990 -20.498 -37.974  0.00  0.00    +0.000 HD
ENDROOT
BRANCH   1  20
ATOM     19  C   UNL     1      48.005 -19.288 -35.197  0.00  0.00    +0.079 C 
ATOM     20  O   UNL     1      47.014 -20.209 -35.627  0.00  0.00    -0.491 OA
ENDBRANCH   1  20
BRANCH  10  21
ATOM     21  O   UNL     1      47.757 -21.340 -42.474  0.00  0.00    -0.388 OA
ATOM     22  H   UNL     1      47.653 -20.587 -43.077  0.00  0.00    +0.000 HD
ENDBRANCH  10  21
BRANCH  16  23
ATOM     23  C   UNL     1      40.355 -19.859 -39.025  0.00  0.00    +0.012 C 
BRANCH  23  24
ATOM     24  C   UNL     1      39.622 -19.219 -37.817  0.00  0.00    +0.012 C 
BRANCH  24  25
ATOM     25  N   UNL     1      39.659 -20.047 -36.595  0.00  0.00    -0.297 N 
ATOM     26  C   UNL     1      40.731 -19.571 -35.690  0.00  0.00    +0.022 C 
ATOM     27  C   UNL     1      40.843 -20.447 -34.434  0.00  0.00    +0.060 C 
ATOM     28  O   UNL     1      41.099 -21.814 -34.781  0.00  0.00    -0.377 OA
ATOM     29  C   UNL     1      40.040 -22.310 -35.611  0.00  0.00    +0.060 C 
ATOM     30  C   UNL     1      39.898 -21.476 -36.895  0.00  0.00    +0.022 C 
ATOM     31  H   UNL     1      38.746 -19.958 -36.149  0.00  0.00    +0.000 HD
ENDBRANCH  24  25
ENDBRANCH  23  24
ENDBRANCH  16  23
TORSDOF 5
ENDMDL
MODEL 19
REMARK VINA RESULT:    -6.100     21.786     25.535
REMARK INTER + INTRA:          -8.283
REMARK INTER:                  -7.739
REMARK INTRA:                  -0.543
REMARK UNBOUND:                -0.578
REMARK  Name = cpd308.pdb
REMARK  6 active torsions:
REMARK  status: ('A' for Active; 'I' for Inactive)
REMARK    1  A    between atoms: C_1  and  O_2
REMARK    2  A    between atoms: O_2  and  C_3
REMARK    3  A    between atoms: C_12  and  O_13
REMARK    4  A    between atoms: N_19  and  C_20
REMARK    5  A    between atoms: C_20  and  C_21
REMARK    6  A    between atoms: C_21  and  N_22
REMARK                            x       y       z     vdW  Elec       q    Type
REMARK                         _______ _______ _______ _____ _____    ______ ____
ROOT
ATOM      1  C   UNL     1      45.843 -21.161 -40.751  0.00  0.00    +0.162 A 
ATOM      2  C   UNL     1      45.371 -20.367 -41.798  0.00  0.00    -0.016 A 
ATOM      3  C   UNL     1      45.059 -19.006 -41.589  0.00  0.00    -0.053 A 
ATOM      4  C   UNL     1      45.162 -18.420 -40.318  0.00  0.00    -0.026 A 
ATOM      5  C   UNL     1      45.494 -19.250 -39.259  0.00  0.00    +0.016 A 
ATOM      6  C   UNL     1      45.905 -20.570 -39.499  0.00  0.00    +0.167 A 
ATOM      7  O   UNL     1      46.498 -21.152 -38.383  0.00  0.00    -0.484 OA
ATOM      8  C   UNL     1      45.936 -20.340 -37.346  0.00  0.00    +0.116 C 
ATOM      9  C   UNL     1      46.608 -20.401 -35.983  0.00  0.00    +0.015 C 
ATOM     10  C   UNL     1      45.764 -19.571 -34.990  0.00  0.00    +0.077 C 
ATOM     11  C   UNL     1      44.862 -18.519 -35.612  0.00  0.00    -0.059 C 
ATOM     12  C   UNL     1      44.852 -18.217 -36.927  0.00  0.00    -0.071 C 
ATOM     13  C   UNL     1      45.840 -18.877 -37.856  0.00  0.00    +0.056 C 
ATOM     14  C   UNL     1      47.136 -18.036 -37.941  0.00  0.00    -0.023 C 
ATOM     15  C   UNL     1      46.923 -16.583 -38.445  0.00  0.00    +0.000 C 
ATOM     16  N   UNL     1      46.480 -16.406 -39.840  0.00  0.00    -0.297 N 
ATOM     17  C   UNL     1      45.133 -16.926 -40.131  0.00  0.00    +0.024 C 
ATOM     18  H   UNL     1      47.111 -16.988 -40.390  0.00  0.00    +0.000 HD
ENDROOT
BRANCH   1  20
ATOM     19  C   UNL     1      47.496 -22.691 -41.502  0.00  0.00    +0.079 C 
ATOM     20  O   UNL     1      46.259 -22.456 -40.845  0.00  0.00    -0.491 OA
ENDBRANCH   1  20
BRANCH  10  21
ATOM     21  O   UNL     1      44.912 -20.477 -34.290  0.00  0.00    -0.388 OA
ATOM     22  H   UNL     1      43.987 -20.283 -34.507  0.00  0.00    +0.000 HD
ENDBRANCH  10  21
BRANCH  16  23
ATOM     23  C   UNL     1      46.629 -15.003 -40.286  0.00  0.00    +0.012 C 
BRANCH  23  24
ATOM     24  C   UNL     1      47.034 -13.966 -39.206  0.00  0.00    +0.012 C 
BRANCH  24  25
ATOM     25  N   UNL     1      48.280 -13.237 -39.520  0.00  0.00    -0.297 N 
ATOM     26  C   UNL     1      48.938 -13.842 -40.701  0.00  0.00    +0.022 C 
ATOM     27  C   UNL     1      50.271 -13.151 -41.023  0.00  0.00    +0.060 C 
ATOM     28  O   UNL     1      51.167 -13.215 -39.905  0.00  0.00    -0.377 OA
ATOM     29  C   UNL     1      50.568 -12.581 -38.767  0.00  0.00    +0.060 C 
ATOM     30  C   UNL     1      49.236 -13.250 -38.391  0.00  0.00    +0.022 C 
ATOM     31  H   UNL     1      48.017 -12.270 -39.711  0.00  0.00    +0.000 HD
ENDBRANCH  24  25
ENDBRANCH  23  24
ENDBRANCH  16  23
TORSDOF 5
ENDMDL
MODEL 20
REMARK VINA RESULT:    -5.924     21.836     25.698
REMARK INTER + INTRA:          -8.060
REMARK INTER:                  -7.590
REMARK INTRA:                  -0.470
REMARK UNBOUND:                -0.578
REMARK  Name = cpd308.pdb
REMARK  6 active torsions:
REMARK  status: ('A' for Active; 'I' for Inactive)
REMARK    1  A    between atoms: C_1  and  O_2
REMARK    2  A    between atoms: O_2  and  C_3
REMARK    3  A    between atoms: C_12  and  O_13
REMARK    4  A    between atoms: N_19  and  C_20
REMARK    5  A    between atoms: C_20  and  C_21
REMARK    6  A    between atoms: C_21  and  N_22
REMARK                            x       y       z     vdW  Elec       q    Type
REMARK                         _______ _______ _______ _____ _____    ______ ____
ROOT
ATOM      1  C   UNL     1      45.910 -21.287 -40.693  0.00  0.00    +0.162 A 
ATOM      2  C   UNL     1      45.461 -20.541 -41.786  0.00  0.00    -0.016 A 
ATOM      3  C   UNL     1      45.143 -19.174 -41.644  0.00  0.00    -0.053 A 
ATOM      4  C   UNL     1      45.214 -18.532 -40.397  0.00  0.00    -0.026 A 
ATOM      5  C   UNL     1      45.522 -19.314 -39.296  0.00  0.00    +0.016 A 
ATOM      6  C   UNL     1      45.941 -20.642 -39.467  0.00  0.00    +0.167 A 
ATOM      7  O   UNL     1      46.508 -21.172 -38.313  0.00  0.00    -0.484 OA
ATOM      8  C   UNL     1      45.919 -20.318 -37.326  0.00  0.00    +0.116 C 
ATOM      9  C   UNL     1      46.558 -20.317 -35.946  0.00  0.00    +0.015 C 
ATOM     10  C   UNL     1      45.689 -19.447 -35.011  0.00  0.00    +0.077 C 
ATOM     11  C   UNL     1      44.802 -18.425 -35.700  0.00  0.00    -0.059 C 
ATOM     12  C   UNL     1      44.822 -18.181 -37.027  0.00  0.00    -0.071 C 
ATOM     13  C   UNL     1      45.833 -18.879 -37.902  0.00  0.00    +0.056 C 
ATOM     14  C   UNL     1      47.130 -18.039 -37.993  0.00  0.00    -0.023 C 
ATOM     15  C   UNL     1      46.927 -16.610 -38.565  0.00  0.00    +0.000 C 
ATOM     16  N   UNL     1      46.518 -16.495 -39.977  0.00  0.00    -0.297 N 
ATOM     17  C   UNL     1      45.178 -17.032 -40.277  0.00  0.00    +0.024 C 
ATOM     18  H   UNL     1      47.163 -17.100 -40.485  0.00  0.00    +0.000 HD
ENDROOT
BRANCH   1  20
ATOM     19  C   UNL     1      47.516 -22.864 -41.451  0.00  0.00    +0.079 C 
ATOM     20  O   UNL     1      46.330 -22.584 -40.721  0.00  0.00    -0.491 OA
ENDBRANCH   1  20
BRANCH  10  21
ATOM     21  O   UNL     1      44.823 -20.323 -34.293  0.00  0.00    -0.388 OA
ATOM     22  H   UNL     1      44.673 -19.970 -33.402  0.00  0.00    +0.000 HD
ENDBRANCH  10  21
BRANCH  16  23
ATOM     23  C   UNL     1      46.675 -15.112 -40.481  0.00  0.00    +0.012 C 
BRANCH  23  24
ATOM     24  C   UNL     1      48.089 -14.485 -40.367  0.00  0.00    +0.012 C 
BRANCH  24  25
ATOM     25  N   UNL     1      48.622 -13.987 -41.651  0.00  0.00    -0.297 N 
ATOM     26  C   UNL     1      47.632 -13.100 -42.303  0.00  0.00    +0.022 C 
ATOM     27  C   UNL     1      48.124 -12.611 -43.674  0.00  0.00    +0.060 C 
ATOM     28  O   UNL     1      48.404 -13.716 -44.543  0.00  0.00    -0.377 OA
ATOM     29  C   UNL     1      49.405 -14.556 -43.953  0.00  0.00    +0.060 C 
ATOM     30  C   UNL     1      48.952 -15.088 -42.583  0.00  0.00    +0.022 C 
ATOM     31  H   UNL     1      49.479 -13.476 -41.439  0.00  0.00    +0.000 HD
ENDBRANCH  24  25
ENDBRANCH  23  24
ENDBRANCH  16  23
TORSDOF 5
ENDMDL
