@<TRIPOS>MOLECULE
*****
 28 32 0 0 0
SMALL
GASTEIGER

@<TRIPOS>ATOM
      1 C           2.8852    3.0107    0.0000 C.3     1  UNL1        0.2526
      2 O           2.9832    2.0773    0.0000 O.3     1  UNL1       -0.4684
      3 C           2.1704    1.6081    0.0000 C.ar    1  UNL1        0.1721
      4 C           1.3577    2.0774    0.0000 C.ar    1  UNL1        0.0397
      5 C           0.5443    1.6079    0.0000 C.ar    1  UNL1        0.0001
      6 C           0.5442    0.6694    0.0000 C.ar    1  UNL1       -0.0066
      7 C           1.3572    0.1997    0.0000 C.ar    1  UNL1        0.0187
      8 C           2.1706    0.6692    0.0000 C.ar    1  UNL1        0.1682
      9 O           2.9833    0.1999    0.0000 O.3     1  UNL1       -0.4757
     10 C           2.9835   -0.7390    0.0000 C.3     1  UNL1        0.1762
     11 C           3.7965   -1.2087    0.0000 C.3     1  UNL1        0.0816
     12 C           3.7964   -2.1472    0.0000 C.3     1  UNL1        0.1773
     13 O           4.6295   -2.6283    0.0000 O.3     1  UNL1       -0.2182
     14 C           2.9831   -2.6167    0.0000 C.2     1  UNL1        0.0021
     15 C           2.1703   -2.1475    0.0000 C.2     1  UNL1       -0.0211
     16 C           2.1702   -1.2085    0.0000 C.3     1  UNL1        0.0780
     17 C           1.4298   -1.6514    0.0000 C.3     1  UNL1        0.0290
     18 C           0.5780   -1.5148    0.0000 C.3     1  UNL1        0.0732
     19 N           0.0134   -0.8626    0.0000 N.3     1  UNL1       -0.2677
     20 C          -0.9066   -1.2136    0.0000 C.3     1  UNL1        0.0899
     21 C          -1.0625   -2.1859    0.0000 C.3     1  UNL1        0.0898
     22 N          -1.9825   -2.5369    0.0000 N.3     1  UNL1       -0.2672
     23 C          -2.1384   -3.5091    0.0000 C.3     1  UNL1        0.1047
     24 C          -3.0584   -3.8602    0.0000 C.3     1  UNL1        0.1595
     25 O          -3.8224   -3.2390    0.0000 O.3     1  UNL1       -0.3508
     26 C          -3.6664   -2.2668    0.0000 C.3     1  UNL1        0.1595
     27 C          -2.7465   -1.9157    0.0000 C.3     1  UNL1        0.1047
     28 C          -0.0000   -0.0000    0.0000 C.3     1  UNL1        0.0990
@<TRIPOS>BOND
     1     1     2    1
     2     2     3    1
     3     3     4   ar
     4     4     5   ar
     5     5     6   ar
     6     6     7   ar
     7     7     8   ar
     8     3     8   ar
     9     8     9    1
    10     9    10    1
    11    10    11    1
    12    11    12    1
    13    12    13    1
    14    12    14    1
    15    14    15    2
    16    15    16    1
    17     7    16    1
    18    10    16    1
    19    16    17    1
    20    17    18    1
    21    18    19    1
    22    19    20    1
    23    20    21    1
    24    21    22    1
    25    22    23    1
    26    23    24    1
    27    24    25    1
    28    25    26    1
    29    26    27    1
    30    22    27    1
    31    19    28    1
    32     6    28    1
