REMARK  Name = cpd113.pdb
REMARK  6 active torsions:
REMARK  status: ('A' for Active; 'I' for Inactive)
REMARK    1  A    between atoms: C_1  and  C_2
REMARK    2  A    between atoms: C_6  and  C_7
REMARK    3  A    between atoms: C_9  and  N_10
REMARK    4  A    between atoms: C_11  and  C_12
REMARK    5  A    between atoms: C_12  and  C_13
REMARK    6  A    between atoms: C_14  and  C_15
REMARK                            x       y       z     vdW  Elec       q    Type
REMARK                         _______ _______ _______ _____ _____    ______ ____
ROOT
ATOM      1  C   UNL A   1       0.909  -3.048  -3.251  0.00  0.00    -0.046 C 
ATOM      2  C   UNL A   1       1.386  -2.273  -2.062  0.00  0.00    -0.085 C 
ATOM      3  C   UNL A   1       0.684  -1.886  -0.974  0.00  0.00    -0.035 C 
ATOM      4  C   UNL A   1      -0.800  -2.151  -0.784  0.00  0.00    +0.006 C 
ATOM      5  C   UNL A   1      -1.137  -2.657   0.600  0.00  0.00    -0.077 C 
ATOM      6  C   UNL A   1      -0.360  -2.464   1.679  0.00  0.00    -0.073 C 
ATOM      7  C   UNL A   1      -0.729  -2.970   3.042  0.00  0.00    -0.044 C 
ATOM      8  C   UNL A   1       0.947  -1.711   1.571  0.00  0.00    +0.001 C 
ATOM      9  C   UNL A   1       1.211  -1.025   0.183  0.00  0.00    +0.113 C 
ATOM     10  C   UNL A   1       0.451   0.312   0.163  0.00  0.00    -0.000 C 
ATOM     11  C   UNL A   1       0.960   1.518   0.470  0.00  0.00    -0.068 C 
ATOM     12  C   UNL A   1       0.142   2.767   0.475  0.00  0.00    +0.045 C 
ATOM     13  C   UNL A   1      -1.347   2.460   0.545  0.00  0.00    +0.240 C 
ATOM     14  O   UNL A   1      -2.114   3.252   1.089  0.00  0.00    -0.273 OA
ATOM     15  N   UNL A   1      -1.799   1.336  -0.104  0.00  0.00    -0.185 NA
ATOM     16  C   UNL A   1      -0.986   0.340  -0.272  0.00  0.00    +0.040 C 
ATOM     17  C   UNL A   1      -1.540  -0.845  -1.058  0.00  0.00    -0.002 C 
ENDROOT
BRANCH   9  18
ATOM     18  N   UNL A   1       2.656  -0.706   0.059  0.00  0.00    -0.275 NA
ATOM     19  C   UNL A   1       3.520  -1.653   0.150  0.00  0.00    +0.026 C 
BRANCH  19  20
ATOM     20  C   UNL A   1       4.987  -1.411   0.056  0.00  0.00    -0.032 C 
ATOM     21  C   UNL A   1       5.428   0.016  -0.068  0.00  0.00    -0.038 C 
ATOM     22  C   UNL A   1       5.769  -2.505   0.108  0.00  0.00    -0.050 C 
BRANCH  22  23
ATOM     23  C   UNL A   1       7.232  -2.494   0.014  0.00  0.00    -0.025 A 
ATOM     24  C   UNL A   1       7.997  -2.891   1.116  0.00  0.00    -0.055 A 
ATOM     25  C   UNL A   1       9.392  -2.905   1.035  0.00  0.00    -0.061 A 
ATOM     26  C   UNL A   1      10.027  -2.528  -0.148  0.00  0.00    -0.062 A 
ATOM     27  C   UNL A   1       9.270  -2.140  -1.252  0.00  0.00    -0.061 A 
ATOM     28  C   UNL A   1       7.876  -2.126  -1.173  0.00  0.00    -0.055 A 
ENDBRANCH  22  23
ENDBRANCH  19  20
ENDBRANCH   9  18
TORSDOF 3
