MODEL 1
REMARK VINA RESULT:    -8.496      0.000      0.000
REMARK INTER + INTRA:         -10.818
REMARK INTER:                  -9.986
REMARK INTRA:                  -0.832
REMARK UNBOUND:                -0.832
REMARK  Name = cpd113.pdb
REMARK  6 active torsions:
REMARK  status: ('A' for Active; 'I' for Inactive)
REMARK    1  A    between atoms: C_1  and  C_2
REMARK    2  A    between atoms: C_6  and  C_7
REMARK    3  A    between atoms: C_9  and  N_10
REMARK    4  A    between atoms: C_11  and  C_12
REMARK    5  A    between atoms: C_12  and  C_13
REMARK    6  A    between atoms: C_14  and  C_15
REMARK                            x       y       z     vdW  Elec       q    Type
REMARK                         _______ _______ _______ _____ _____    ______ ____
ROOT
ATOM      1  C   UNL A   1      34.337 -37.199 -26.448  0.00  0.00    -0.046 C 
ATOM      2  C   UNL A   1      34.630 -36.952 -27.895  0.00  0.00    -0.085 C 
ATOM      3  C   UNL A   1      35.432 -37.658 -28.723  0.00  0.00    -0.035 C 
ATOM      4  C   UNL A   1      36.248 -38.864 -28.289  0.00  0.00    +0.006 C 
ATOM      5  C   UNL A   1      36.157 -40.019 -29.260  0.00  0.00    -0.077 C 
ATOM      6  C   UNL A   1      35.815 -39.887 -30.552  0.00  0.00    -0.073 C 
ATOM      7  C   UNL A   1      35.745 -41.054 -31.493  0.00  0.00    -0.044 C 
ATOM      8  C   UNL A   1      35.481 -38.532 -31.134  0.00  0.00    +0.001 C 
ATOM      9  C   UNL A   1      35.753 -37.311 -30.184  0.00  0.00    +0.113 C 
ATOM     10  C   UNL A   1      37.250 -36.968 -30.271  0.00  0.00    -0.000 C 
ATOM     11  C   UNL A   1      37.804 -36.035 -31.066  0.00  0.00    -0.068 C 
ATOM     12  C   UNL A   1      39.277 -35.794 -31.130  0.00  0.00    +0.045 C 
ATOM     13  C   UNL A   1      40.061 -36.975 -30.575  0.00  0.00    +0.240 C 
ATOM     14  O   UNL A   1      41.183 -37.227 -31.009  0.00  0.00    -0.273 OA
ATOM     15  N   UNL A   1      39.515 -37.665 -29.519  0.00  0.00    -0.185 NA
ATOM     16  C   UNL A   1      38.226 -37.679 -29.379  0.00  0.00    +0.040 C 
ATOM     17  C   UNL A   1      37.699 -38.411 -28.148  0.00  0.00    -0.002 C 
ENDROOT
BRANCH   9  18
ATOM     18  N   UNL A   1      35.006 -36.127 -30.679  0.00  0.00    -0.275 NA
ATOM     19  C   UNL A   1      33.868 -36.295 -31.251  0.00  0.00    +0.026 C 
BRANCH  19  20
ATOM     20  C   UNL A   1      33.067 -35.161 -31.791  0.00  0.00    -0.032 C 
ATOM     21  C   UNL A   1      33.441 -34.659 -33.153  0.00  0.00    -0.038 C 
ATOM     22  C   UNL A   1      32.074 -34.712 -31.001  0.00  0.00    -0.050 C 
BRANCH  22  23
ATOM     23  C   UNL A   1      31.182 -33.596 -31.329  0.00  0.00    -0.025 A 
ATOM     24  C   UNL A   1      31.561 -32.290 -31.002  0.00  0.00    -0.055 A 
ATOM     25  C   UNL A   1      30.730 -31.214 -31.327  0.00  0.00    -0.061 A 
ATOM     26  C   UNL A   1      29.521 -31.440 -31.984  0.00  0.00    -0.062 A 
ATOM     27  C   UNL A   1      29.142 -32.738 -32.320  0.00  0.00    -0.061 A 
ATOM     28  C   UNL A   1      29.971 -33.814 -31.997  0.00  0.00    -0.055 A 
ENDBRANCH  22  23
ENDBRANCH  19  20
ENDBRANCH   9  18
TORSDOF 3
ENDMDL
MODEL 2
REMARK VINA RESULT:    -7.978      3.308      6.836
REMARK INTER + INTRA:         -10.209
REMARK INTER:                  -9.351
REMARK INTRA:                  -0.858
REMARK UNBOUND:                -0.832
REMARK  Name = cpd113.pdb
REMARK  6 active torsions:
REMARK  status: ('A' for Active; 'I' for Inactive)
REMARK    1  A    between atoms: C_1  and  C_2
REMARK    2  A    between atoms: C_6  and  C_7
REMARK    3  A    between atoms: C_9  and  N_10
REMARK    4  A    between atoms: C_11  and  C_12
REMARK    5  A    between atoms: C_12  and  C_13
REMARK    6  A    between atoms: C_14  and  C_15
REMARK                            x       y       z     vdW  Elec       q    Type
REMARK                         _______ _______ _______ _____ _____    ______ ____
ROOT
ATOM      1  C   UNL A   1      38.870 -38.333 -27.944  0.00  0.00    -0.046 C 
ATOM      2  C   UNL A   1      37.450 -37.866 -27.848  0.00  0.00    -0.085 C 
ATOM      3  C   UNL A   1      36.580 -37.611 -28.850  0.00  0.00    -0.035 C 
ATOM      4  C   UNL A   1      36.928 -37.720 -30.325  0.00  0.00    +0.006 C 
ATOM      5  C   UNL A   1      35.868 -38.437 -31.130  0.00  0.00    -0.077 C 
ATOM      6  C   UNL A   1      34.586 -38.553 -30.747  0.00  0.00    -0.073 C 
ATOM      7  C   UNL A   1      33.555 -39.262 -31.576  0.00  0.00    -0.044 C 
ATOM      8  C   UNL A   1      34.109 -37.963 -29.439  0.00  0.00    +0.001 C 
ATOM      9  C   UNL A   1      35.155 -37.061 -28.691  0.00  0.00    +0.113 C 
ATOM     10  C   UNL A   1      35.114 -35.661 -29.326  0.00  0.00    -0.000 C 
ATOM     11  C   UNL A   1      34.403 -34.610 -28.883  0.00  0.00    -0.068 C 
ATOM     12  C   UNL A   1      34.377 -33.293 -29.586  0.00  0.00    +0.045 C 
ATOM     13  C   UNL A   1      34.847 -33.419 -31.028  0.00  0.00    +0.240 C 
ATOM     14  O   UNL A   1      34.409 -32.657 -31.888  0.00  0.00    -0.273 OA
ATOM     15  N   UNL A   1      35.838 -34.332 -31.300  0.00  0.00    -0.185 NA
ATOM     16  C   UNL A   1      35.960 -35.371 -30.533  0.00  0.00    +0.040 C 
ATOM     17  C   UNL A   1      37.122 -36.304 -30.858  0.00  0.00    -0.002 C 
ENDROOT
BRANCH   9  18
ATOM     18  N   UNL A   1      34.746 -36.907 -27.272  0.00  0.00    -0.275 NA
ATOM     19  C   UNL A   1      33.626 -37.402 -26.882  0.00  0.00    +0.026 C 
BRANCH  19  20
ATOM     20  C   UNL A   1      33.137 -37.273 -25.481  0.00  0.00    -0.032 C 
ATOM     21  C   UNL A   1      32.403 -36.012 -25.137  0.00  0.00    -0.038 C 
ATOM     22  C   UNL A   1      33.393 -38.315 -24.669  0.00  0.00    -0.050 C 
BRANCH  22  23
ATOM     23  C   UNL A   1      33.018 -38.385 -23.253  0.00  0.00    -0.025 A 
ATOM     24  C   UNL A   1      33.890 -37.881 -22.283  0.00  0.00    -0.055 A 
ATOM     25  C   UNL A   1      33.538 -37.922 -20.931  0.00  0.00    -0.061 A 
ATOM     26  C   UNL A   1      32.312 -38.463 -20.545  0.00  0.00    -0.062 A 
ATOM     27  C   UNL A   1      31.435 -38.960 -21.508  0.00  0.00    -0.061 A 
ATOM     28  C   UNL A   1      31.785 -38.918 -22.859  0.00  0.00    -0.055 A 
ENDBRANCH  22  23
ENDBRANCH  19  20
ENDBRANCH   9  18
TORSDOF 3
ENDMDL
MODEL 3
REMARK VINA RESULT:    -7.817     18.027     20.531
REMARK INTER + INTRA:         -10.020
REMARK INTER:                  -9.142
REMARK INTRA:                  -0.878
REMARK UNBOUND:                -0.832
REMARK  Name = cpd113.pdb
REMARK  6 active torsions:
REMARK  status: ('A' for Active; 'I' for Inactive)
REMARK    1  A    between atoms: C_1  and  C_2
REMARK    2  A    between atoms: C_6  and  C_7
REMARK    3  A    between atoms: C_9  and  N_10
REMARK    4  A    between atoms: C_11  and  C_12
REMARK    5  A    between atoms: C_12  and  C_13
REMARK    6  A    between atoms: C_14  and  C_15
REMARK                            x       y       z     vdW  Elec       q    Type
REMARK                         _______ _______ _______ _____ _____    ______ ____
ROOT
ATOM      1  C   UNL A   1      43.555 -16.440 -40.371  0.00  0.00    -0.046 C 
ATOM      2  C   UNL A   1      43.749 -17.762 -39.695  0.00  0.00    -0.085 C 
ATOM      3  C   UNL A   1      44.905 -18.355 -39.324  0.00  0.00    -0.035 C 
ATOM      4  C   UNL A   1      46.281 -17.765 -39.583  0.00  0.00    +0.006 C 
ATOM      5  C   UNL A   1      47.192 -17.842 -38.379  0.00  0.00    -0.077 C 
ATOM      6  C   UNL A   1      47.030 -18.714 -37.370  0.00  0.00    -0.073 C 
ATOM      7  C   UNL A   1      47.959 -18.773 -36.194  0.00  0.00    -0.044 C 
ATOM      8  C   UNL A   1      45.882 -19.699 -37.371  0.00  0.00    +0.001 C 
ATOM      9  C   UNL A   1      45.046 -19.750 -38.700  0.00  0.00    +0.113 C 
ATOM     10  C   UNL A   1      45.800 -20.643 -39.700  0.00  0.00    -0.000 C 
ATOM     11  C   UNL A   1      45.581 -21.952 -39.915  0.00  0.00    -0.068 C 
ATOM     12  C   UNL A   1      46.392 -22.764 -40.871  0.00  0.00    +0.045 C 
ATOM     13  C   UNL A   1      47.713 -22.084 -41.201  0.00  0.00    +0.240 C 
ATOM     14  O   UNL A   1      48.699 -22.761 -41.484  0.00  0.00    -0.273 OA
ATOM     15  N   UNL A   1      47.726 -20.712 -41.270  0.00  0.00    -0.185 NA
ATOM     16  C   UNL A   1      46.862 -20.041 -40.575  0.00  0.00    +0.040 C 
ATOM     17  C   UNL A   1      46.896 -18.526 -40.754  0.00  0.00    -0.002 C 
ENDROOT
BRANCH   9  18
ATOM     18  N   UNL A   1      43.739 -20.403 -38.433  0.00  0.00    -0.275 NA
ATOM     19  C   UNL A   1      43.308 -20.480 -37.225  0.00  0.00    +0.026 C 
BRANCH  19  20
ATOM     20  C   UNL A   1      42.017 -21.136 -36.875  0.00  0.00    -0.032 C 
ATOM     21  C   UNL A   1      41.340 -21.914 -37.962  0.00  0.00    -0.038 C 
ATOM     22  C   UNL A   1      41.599 -20.974 -35.606  0.00  0.00    -0.050 C 
BRANCH  22  23
ATOM     23  C   UNL A   1      40.352 -21.517 -35.059  0.00  0.00    -0.025 A 
ATOM     24  C   UNL A   1      40.337 -22.810 -34.527  0.00  0.00    -0.055 A 
ATOM     25  C   UNL A   1      39.161 -23.334 -33.984  0.00  0.00    -0.061 A 
ATOM     26  C   UNL A   1      37.997 -22.566 -33.966  0.00  0.00    -0.062 A 
ATOM     27  C   UNL A   1      38.008 -21.273 -34.486  0.00  0.00    -0.061 A 
ATOM     28  C   UNL A   1      39.182 -20.748 -35.029  0.00  0.00    -0.055 A 
ENDBRANCH  22  23
ENDBRANCH  19  20
ENDBRANCH   9  18
TORSDOF 3
ENDMDL
MODEL 4
REMARK VINA RESULT:    -7.602     16.255     19.274
REMARK INTER + INTRA:          -9.768
REMARK INTER:                  -9.001
REMARK INTRA:                  -0.767
REMARK UNBOUND:                -0.832
REMARK  Name = cpd113.pdb
REMARK  6 active torsions:
REMARK  status: ('A' for Active; 'I' for Inactive)
REMARK    1  A    between atoms: C_1  and  C_2
REMARK    2  A    between atoms: C_6  and  C_7
REMARK    3  A    between atoms: C_9  and  N_10
REMARK    4  A    between atoms: C_11  and  C_12
REMARK    5  A    between atoms: C_12  and  C_13
REMARK    6  A    between atoms: C_14  and  C_15
REMARK                            x       y       z     vdW  Elec       q    Type
REMARK                         _______ _______ _______ _____ _____    ______ ____
ROOT
ATOM      1  C   UNL A   1      44.217 -18.843 -33.766  0.00  0.00    -0.046 C 
ATOM      2  C   UNL A   1      43.268 -19.509 -34.713  0.00  0.00    -0.085 C 
ATOM      3  C   UNL A   1      41.916 -19.496 -34.697  0.00  0.00    -0.035 C 
ATOM      4  C   UNL A   1      41.088 -18.799 -33.630  0.00  0.00    +0.006 C 
ATOM      5  C   UNL A   1      39.944 -17.994 -34.203  0.00  0.00    -0.077 C 
ATOM      6  C   UNL A   1      39.407 -18.212 -35.415  0.00  0.00    -0.073 C 
ATOM      7  C   UNL A   1      38.264 -17.401 -35.951  0.00  0.00    -0.044 C 
ATOM      8  C   UNL A   1      39.936 -19.307 -36.315  0.00  0.00    +0.001 C 
ATOM      9  C   UNL A   1      40.993 -20.262 -35.654  0.00  0.00    +0.113 C 
ATOM     10  C   UNL A   1      40.231 -21.318 -34.835  0.00  0.00    -0.000 C 
ATOM     11  C   UNL A   1      39.886 -22.548 -35.253  0.00  0.00    -0.068 C 
ATOM     12  C   UNL A   1      39.101 -23.500 -34.412  0.00  0.00    +0.045 C 
ATOM     13  C   UNL A   1      38.379 -22.783 -33.280  0.00  0.00    +0.240 C 
ATOM     14  O   UNL A   1      37.317 -23.226 -32.848  0.00  0.00    -0.273 OA
ATOM     15  N   UNL A   1      39.006 -21.703 -32.706  0.00  0.00    -0.185 NA
ATOM     16  C   UNL A   1      39.847 -21.016 -33.415  0.00  0.00    +0.040 C 
ATOM     17  C   UNL A   1      40.551 -19.873 -32.689  0.00  0.00    -0.002 C 
ENDROOT
BRANCH   9  18
ATOM     18  N   UNL A   1      41.732 -20.988 -36.718  0.00  0.00    -0.275 NA
ATOM     19  C   UNL A   1      41.647 -20.581 -37.934  0.00  0.00    +0.026 C 
BRANCH  19  20
ATOM     20  C   UNL A   1      42.342 -21.266 -39.060  0.00  0.00    -0.032 C 
ATOM     21  C   UNL A   1      41.565 -22.318 -39.791  0.00  0.00    -0.038 C 
ATOM     22  C   UNL A   1      43.598 -20.856 -39.314  0.00  0.00    -0.050 C 
BRANCH  22  23
ATOM     23  C   UNL A   1      44.465 -21.408 -40.359  0.00  0.00    -0.025 A 
ATOM     24  C   UNL A   1      45.608 -22.128 -39.999  0.00  0.00    -0.055 A 
ATOM     25  C   UNL A   1      46.433 -22.678 -40.984  0.00  0.00    -0.061 A 
ATOM     26  C   UNL A   1      46.115 -22.514 -42.332  0.00  0.00    -0.062 A 
ATOM     27  C   UNL A   1      44.972 -21.805 -42.697  0.00  0.00    -0.061 A 
ATOM     28  C   UNL A   1      44.147 -21.256 -41.714  0.00  0.00    -0.055 A 
ENDBRANCH  22  23
ENDBRANCH  19  20
ENDBRANCH   9  18
TORSDOF 3
ENDMDL
MODEL 5
REMARK VINA RESULT:    -7.431     17.081     19.766
REMARK INTER + INTRA:          -9.566
REMARK INTER:                  -8.758
REMARK INTRA:                  -0.808
REMARK UNBOUND:                -0.832
REMARK  Name = cpd113.pdb
REMARK  6 active torsions:
REMARK  status: ('A' for Active; 'I' for Inactive)
REMARK    1  A    between atoms: C_1  and  C_2
REMARK    2  A    between atoms: C_6  and  C_7
REMARK    3  A    between atoms: C_9  and  N_10
REMARK    4  A    between atoms: C_11  and  C_12
REMARK    5  A    between atoms: C_12  and  C_13
REMARK    6  A    between atoms: C_14  and  C_15
REMARK                            x       y       z     vdW  Elec       q    Type
REMARK                         _______ _______ _______ _____ _____    ______ ____
ROOT
ATOM      1  C   UNL A   1      38.158 -17.295 -36.204  0.00  0.00    -0.046 C 
ATOM      2  C   UNL A   1      39.310 -18.251 -36.233  0.00  0.00    -0.085 C 
ATOM      3  C   UNL A   1      39.907 -18.880 -35.196  0.00  0.00    -0.035 C 
ATOM      4  C   UNL A   1      39.513 -18.679 -33.742  0.00  0.00    +0.006 C 
ATOM      5  C   UNL A   1      39.404 -19.978 -32.976  0.00  0.00    -0.077 C 
ATOM      6  C   UNL A   1      40.014 -21.118 -33.340  0.00  0.00    -0.073 C 
ATOM      7  C   UNL A   1      39.893 -22.387 -32.551  0.00  0.00    -0.044 C 
ATOM      8  C   UNL A   1      40.868 -21.178 -34.586  0.00  0.00    +0.001 C 
ATOM      9  C   UNL A   1      41.137 -19.795 -35.281  0.00  0.00    +0.113 C 
ATOM     10  C   UNL A   1      42.292 -19.106 -34.534  0.00  0.00    -0.000 C 
ATOM     11  C   UNL A   1      43.591 -19.143 -34.877  0.00  0.00    -0.068 C 
ATOM     12  C   UNL A   1      44.663 -18.488 -34.070  0.00  0.00    +0.045 C 
ATOM     13  C   UNL A   1      44.193 -18.192 -32.653  0.00  0.00    +0.240 C 
ATOM     14  O   UNL A   1      45.001 -18.183 -31.726  0.00  0.00    -0.273 OA
ATOM     15  N   UNL A   1      42.877 -17.840 -32.476  0.00  0.00    -0.185 NA
ATOM     16  C   UNL A   1      41.995 -18.266 -33.326  0.00  0.00    +0.040 C 
ATOM     17  C   UNL A   1      40.566 -17.780 -33.101  0.00  0.00    -0.002 C 
ENDROOT
BRANCH   9  18
ATOM     18  N   UNL A   1      41.596 -20.025 -36.674  0.00  0.00    -0.275 NA
ATOM     19  C   UNL A   1      41.795 -21.228 -37.081  0.00  0.00    +0.026 C 
BRANCH  19  20
ATOM     20  C   UNL A   1      42.274 -21.539 -38.457  0.00  0.00    -0.032 C 
ATOM     21  C   UNL A   1      41.402 -22.431 -39.288  0.00  0.00    -0.038 C 
ATOM     22  C   UNL A   1      43.440 -20.972 -38.818  0.00  0.00    -0.050 C 
BRANCH  22  23
ATOM     23  C   UNL A   1      44.097 -21.161 -40.114  0.00  0.00    -0.025 A 
ATOM     24  C   UNL A   1      43.598 -20.502 -41.243  0.00  0.00    -0.055 A 
ATOM     25  C   UNL A   1      44.226 -20.657 -42.482  0.00  0.00    -0.061 A 
ATOM     26  C   UNL A   1      45.357 -21.464 -42.596  0.00  0.00    -0.062 A 
ATOM     27  C   UNL A   1      45.865 -22.116 -41.473  0.00  0.00    -0.061 A 
ATOM     28  C   UNL A   1      45.239 -21.962 -40.235  0.00  0.00    -0.055 A 
ENDBRANCH  22  23
ENDBRANCH  19  20
ENDBRANCH   9  18
TORSDOF 3
ENDMDL
MODEL 6
REMARK VINA RESULT:    -7.109     17.576     20.089
REMARK INTER + INTRA:          -9.188
REMARK INTER:                  -8.280
REMARK INTRA:                  -0.908
REMARK UNBOUND:                -0.832
REMARK  Name = cpd113.pdb
REMARK  6 active torsions:
REMARK  status: ('A' for Active; 'I' for Inactive)
REMARK    1  A    between atoms: C_1  and  C_2
REMARK    2  A    between atoms: C_6  and  C_7
REMARK    3  A    between atoms: C_9  and  N_10
REMARK    4  A    between atoms: C_11  and  C_12
REMARK    5  A    between atoms: C_12  and  C_13
REMARK    6  A    between atoms: C_14  and  C_15
REMARK                            x       y       z     vdW  Elec       q    Type
REMARK                         _______ _______ _______ _____ _____    ______ ____
ROOT
ATOM      1  C   UNL A   1      44.070 -21.894 -42.093  0.00  0.00    -0.046 C 
ATOM      2  C   UNL A   1      43.665 -21.326 -40.769  0.00  0.00    -0.085 C 
ATOM      3  C   UNL A   1      44.128 -20.216 -40.152  0.00  0.00    -0.035 C 
ATOM      4  C   UNL A   1      45.229 -19.332 -40.713  0.00  0.00    +0.006 C 
ATOM      5  C   UNL A   1      44.909 -17.858 -40.618  0.00  0.00    -0.077 C 
ATOM      6  C   UNL A   1      44.025 -17.337 -39.751  0.00  0.00    -0.073 C 
ATOM      7  C   UNL A   1      43.738 -15.866 -39.675  0.00  0.00    -0.044 C 
ATOM      8  C   UNL A   1      43.264 -18.222 -38.790  0.00  0.00    +0.001 C 
ATOM      9  C   UNL A   1      43.726 -19.723 -38.755  0.00  0.00    +0.113 C 
ATOM     10  C   UNL A   1      44.963 -19.817 -37.845  0.00  0.00    -0.000 C 
ATOM     11  C   UNL A   1      44.965 -20.142 -36.541  0.00  0.00    -0.068 C 
ATOM     12  C   UNL A   1      46.206 -20.163 -35.711  0.00  0.00    +0.045 C 
ATOM     13  C   UNL A   1      47.327 -19.366 -36.363  0.00  0.00    +0.240 C 
ATOM     14  O   UNL A   1      48.175 -18.813 -35.665  0.00  0.00    -0.273 OA
ATOM     15  N   UNL A   1      47.408 -19.381 -37.734  0.00  0.00    -0.185 NA
ATOM     16  C   UNL A   1      46.327 -19.573 -38.424  0.00  0.00    +0.040 C 
ATOM     17  C   UNL A   1      46.507 -19.641 -39.938  0.00  0.00    -0.002 C 
ENDROOT
BRANCH   9  18
ATOM     18  N   UNL A   1      42.663 -20.551 -38.130  0.00  0.00    -0.275 NA
ATOM     19  C   UNL A   1      41.501 -20.038 -37.932  0.00  0.00    +0.026 C 
BRANCH  19  20
ATOM     20  C   UNL A   1      40.389 -20.797 -37.293  0.00  0.00    -0.032 C 
ATOM     21  C   UNL A   1      39.315 -21.311 -38.203  0.00  0.00    -0.038 C 
ATOM     22  C   UNL A   1      40.473 -20.954 -35.960  0.00  0.00    -0.050 C 
BRANCH  22  23
ATOM     23  C   UNL A   1      39.481 -21.649 -35.134  0.00  0.00    -0.025 A 
ATOM     24  C   UNL A   1      39.565 -23.036 -34.974  0.00  0.00    -0.055 A 
ATOM     25  C   UNL A   1      38.638 -23.709 -34.174  0.00  0.00    -0.061 A 
ATOM     26  C   UNL A   1      37.628 -22.999 -33.526  0.00  0.00    -0.062 A 
ATOM     27  C   UNL A   1      37.544 -21.615 -33.675  0.00  0.00    -0.061 A 
ATOM     28  C   UNL A   1      38.470 -20.941 -34.474  0.00  0.00    -0.055 A 
ENDBRANCH  22  23
ENDBRANCH  19  20
ENDBRANCH   9  18
TORSDOF 3
ENDMDL
MODEL 7
REMARK VINA RESULT:    -7.085      3.445      6.980
REMARK INTER + INTRA:          -9.160
REMARK INTER:                  -8.331
REMARK INTRA:                  -0.828
REMARK UNBOUND:                -0.832
REMARK  Name = cpd113.pdb
REMARK  6 active torsions:
REMARK  status: ('A' for Active; 'I' for Inactive)
REMARK    1  A    between atoms: C_1  and  C_2
REMARK    2  A    between atoms: C_6  and  C_7
REMARK    3  A    between atoms: C_9  and  N_10
REMARK    4  A    between atoms: C_11  and  C_12
REMARK    5  A    between atoms: C_12  and  C_13
REMARK    6  A    between atoms: C_14  and  C_15
REMARK                            x       y       z     vdW  Elec       q    Type
REMARK                         _______ _______ _______ _____ _____    ______ ____
ROOT
ATOM      1  C   UNL A   1      32.614 -38.828 -27.494  0.00  0.00    -0.046 C 
ATOM      2  C   UNL A   1      33.074 -38.582 -28.897  0.00  0.00    -0.085 C 
ATOM      3  C   UNL A   1      34.017 -37.718 -29.334  0.00  0.00    -0.035 C 
ATOM      4  C   UNL A   1      34.780 -36.767 -28.427  0.00  0.00    +0.006 C 
ATOM      5  C   UNL A   1      36.264 -36.741 -28.714  0.00  0.00    -0.077 C 
ATOM      6  C   UNL A   1      36.809 -37.112 -29.885  0.00  0.00    -0.073 C 
ATOM      7  C   UNL A   1      38.286 -37.064 -30.141  0.00  0.00    -0.044 C 
ATOM      8  C   UNL A   1      35.943 -37.603 -31.023  0.00  0.00    +0.001 C 
ATOM      9  C   UNL A   1      34.395 -37.456 -30.798  0.00  0.00    +0.113 C 
ATOM     10  C   UNL A   1      34.003 -36.008 -31.137  0.00  0.00    -0.000 C 
ATOM     11  C   UNL A   1      33.527 -35.571 -32.316  0.00  0.00    -0.068 C 
ATOM     12  C   UNL A   1      33.215 -34.136 -32.584  0.00  0.00    +0.045 C 
ATOM     13  C   UNL A   1      33.900 -33.218 -31.582  0.00  0.00    +0.240 C 
ATOM     14  O   UNL A   1      34.228 -32.080 -31.913  0.00  0.00    -0.273 OA
ATOM     15  N   UNL A   1      34.038 -33.670 -30.291  0.00  0.00    -0.185 NA
ATOM     16  C   UNL A   1      34.100 -34.948 -30.078  0.00  0.00    +0.040 C 
ATOM     17  C   UNL A   1      34.187 -35.374 -28.616  0.00  0.00    -0.002 C 
ENDROOT
BRANCH   9  18
ATOM     18  N   UNL A   1      33.674 -38.337 -31.752  0.00  0.00    -0.275 NA
ATOM     19  C   UNL A   1      34.231 -39.425 -32.149  0.00  0.00    +0.026 C 
BRANCH  19  20
ATOM     20  C   UNL A   1      33.581 -40.350 -33.119  0.00  0.00    -0.032 C 
ATOM     21  C   UNL A   1      32.092 -40.244 -33.257  0.00  0.00    -0.038 C 
ATOM     22  C   UNL A   1      34.405 -41.180 -33.785  0.00  0.00    -0.050 C 
BRANCH  22  23
ATOM     23  C   UNL A   1      33.973 -42.180 -34.766  0.00  0.00    -0.025 A 
ATOM     24  C   UNL A   1      33.724 -43.492 -34.350  0.00  0.00    -0.055 A 
ATOM     25  C   UNL A   1      33.292 -44.451 -35.270  0.00  0.00    -0.061 A 
ATOM     26  C   UNL A   1      33.103 -44.102 -36.606  0.00  0.00    -0.062 A 
ATOM     27  C   UNL A   1      33.341 -42.794 -37.025  0.00  0.00    -0.061 A 
ATOM     28  C   UNL A   1      33.772 -41.834 -36.107  0.00  0.00    -0.055 A 
ENDBRANCH  22  23
ENDBRANCH  19  20
ENDBRANCH   9  18
TORSDOF 3
ENDMDL
MODEL 8
REMARK VINA RESULT:    -7.082     17.829     20.209
REMARK INTER + INTRA:          -9.157
REMARK INTER:                  -8.232
REMARK INTRA:                  -0.925
REMARK UNBOUND:                -0.832
REMARK  Name = cpd113.pdb
REMARK  6 active torsions:
REMARK  status: ('A' for Active; 'I' for Inactive)
REMARK    1  A    between atoms: C_1  and  C_2
REMARK    2  A    between atoms: C_6  and  C_7
REMARK    3  A    between atoms: C_9  and  N_10
REMARK    4  A    between atoms: C_11  and  C_12
REMARK    5  A    between atoms: C_12  and  C_13
REMARK    6  A    between atoms: C_14  and  C_15
REMARK                            x       y       z     vdW  Elec       q    Type
REMARK                         _______ _______ _______ _____ _____    ______ ____
ROOT
ATOM      1  C   UNL A   1      46.456 -19.982 -35.470  0.00  0.00    -0.046 C 
ATOM      2  C   UNL A   1      45.262 -20.073 -36.368  0.00  0.00    -0.085 C 
ATOM      3  C   UNL A   1      45.212 -19.955 -37.714  0.00  0.00    -0.035 C 
ATOM      4  C   UNL A   1      46.420 -19.652 -38.584  0.00  0.00    +0.006 C 
ATOM      5  C   UNL A   1      46.497 -20.529 -39.813  0.00  0.00    -0.077 C 
ATOM      6  C   UNL A   1      45.440 -21.160 -40.352  0.00  0.00    -0.073 C 
ATOM      7  C   UNL A   1      45.548 -22.014 -41.580  0.00  0.00    -0.044 C 
ATOM      8  C   UNL A   1      44.064 -21.035 -39.737  0.00  0.00    +0.001 C 
ATOM      9  C   UNL A   1      43.943 -19.983 -38.577  0.00  0.00    +0.113 C 
ATOM     10  C   UNL A   1      43.772 -18.593 -39.214  0.00  0.00    -0.000 C 
ATOM     11  C   UNL A   1      42.607 -17.965 -39.445  0.00  0.00    -0.068 C 
ATOM     12  C   UNL A   1      42.521 -16.633 -40.115  0.00  0.00    +0.045 C 
ATOM     13  C   UNL A   1      43.797 -16.309 -40.880  0.00  0.00    +0.240 C 
ATOM     14  O   UNL A   1      43.750 -15.602 -41.884  0.00  0.00    -0.273 OA
ATOM     15  N   UNL A   1      44.988 -16.746 -40.350  0.00  0.00    -0.185 NA
ATOM     16  C   UNL A   1      44.989 -17.800 -39.596  0.00  0.00    +0.040 C 
ATOM     17  C   UNL A   1      46.337 -18.184 -38.993  0.00  0.00    -0.002 C 
ENDROOT
BRANCH   9  18
ATOM     18  N   UNL A   1      42.712 -20.256 -37.792  0.00  0.00    -0.275 NA
ATOM     19  C   UNL A   1      42.007 -21.295 -38.067  0.00  0.00    +0.026 C 
BRANCH  19  20
ATOM     20  C   UNL A   1      40.750 -21.626 -37.339  0.00  0.00    -0.032 C 
ATOM     21  C   UNL A   1      39.535 -21.884 -38.177  0.00  0.00    -0.038 C 
ATOM     22  C   UNL A   1      40.842 -21.675 -35.997  0.00  0.00    -0.050 C 
BRANCH  22  23
ATOM     23  C   UNL A   1      39.726 -21.962 -35.092  0.00  0.00    -0.025 A 
ATOM     24  C   UNL A   1      38.939 -20.910 -34.611  0.00  0.00    -0.055 A 
ATOM     25  C   UNL A   1      37.859 -21.171 -33.763  0.00  0.00    -0.061 A 
ATOM     26  C   UNL A   1      37.559 -22.482 -33.397  0.00  0.00    -0.062 A 
ATOM     27  C   UNL A   1      38.334 -23.535 -33.879  0.00  0.00    -0.061 A 
ATOM     28  C   UNL A   1      39.413 -23.277 -34.727  0.00  0.00    -0.055 A 
ENDBRANCH  22  23
ENDBRANCH  19  20
ENDBRANCH   9  18
TORSDOF 3
ENDMDL
MODEL 9
REMARK VINA RESULT:    -7.044      3.361      4.907
REMARK INTER + INTRA:          -9.111
REMARK INTER:                  -8.185
REMARK INTRA:                  -0.926
REMARK UNBOUND:                -0.832
REMARK  Name = cpd113.pdb
REMARK  6 active torsions:
REMARK  status: ('A' for Active; 'I' for Inactive)
REMARK    1  A    between atoms: C_1  and  C_2
REMARK    2  A    between atoms: C_6  and  C_7
REMARK    3  A    between atoms: C_9  and  N_10
REMARK    4  A    between atoms: C_11  and  C_12
REMARK    5  A    between atoms: C_12  and  C_13
REMARK    6  A    between atoms: C_14  and  C_15
REMARK                            x       y       z     vdW  Elec       q    Type
REMARK                         _______ _______ _______ _____ _____    ______ ____
ROOT
ATOM      1  C   UNL A   1      32.189 -39.340 -30.648  0.00  0.00    -0.046 C 
ATOM      2  C   UNL A   1      32.717 -38.226 -29.799  0.00  0.00    -0.085 C 
ATOM      3  C   UNL A   1      33.663 -38.278 -28.835  0.00  0.00    -0.035 C 
ATOM      4  C   UNL A   1      34.357 -39.557 -28.398  0.00  0.00    +0.006 C 
ATOM      5  C   UNL A   1      35.853 -39.396 -28.252  0.00  0.00    -0.077 C 
ATOM      6  C   UNL A   1      36.465 -38.215 -28.058  0.00  0.00    -0.073 C 
ATOM      7  C   UNL A   1      37.952 -38.091 -27.906  0.00  0.00    -0.044 C 
ATOM      8  C   UNL A   1      35.670 -36.931 -27.980  0.00  0.00    +0.001 C 
ATOM      9  C   UNL A   1      34.111 -37.111 -27.943  0.00  0.00    +0.113 C 
ATOM     10  C   UNL A   1      33.705 -37.438 -26.496  0.00  0.00    -0.000 C 
ATOM     11  C   UNL A   1      33.282 -36.557 -25.573  0.00  0.00    -0.068 C 
ATOM     12  C   UNL A   1      32.953 -36.947 -24.170  0.00  0.00    +0.045 C 
ATOM     13  C   UNL A   1      33.567 -38.291 -23.804  0.00  0.00    +0.240 C 
ATOM     14  O   UNL A   1      33.887 -38.526 -22.641  0.00  0.00    -0.273 OA
ATOM     15  N   UNL A   1      33.647 -39.246 -24.790  0.00  0.00    -0.185 NA
ATOM     16  C   UNL A   1      33.725 -38.865 -26.027  0.00  0.00    +0.040 C 
ATOM     17  C   UNL A   1      33.745 -39.981 -27.066  0.00  0.00    -0.002 C 
ENDROOT
BRANCH   9  18
ATOM     18  N   UNL A   1      33.458 -35.825 -28.298  0.00  0.00    -0.275 NA
ATOM     19  C   UNL A   1      34.106 -34.962 -28.995  0.00  0.00    +0.026 C 
BRANCH  19  20
ATOM     20  C   UNL A   1      33.529 -33.642 -29.374  0.00  0.00    -0.032 C 
ATOM     21  C   UNL A   1      34.501 -32.563 -29.746  0.00  0.00    -0.038 C 
ATOM     22  C   UNL A   1      32.186 -33.560 -29.357  0.00  0.00    -0.050 C 
BRANCH  22  23
ATOM     23  C   UNL A   1      31.416 -32.353 -29.676  0.00  0.00    -0.025 A 
ATOM     24  C   UNL A   1      30.995 -31.511 -28.642  0.00  0.00    -0.055 A 
ATOM     25  C   UNL A   1      30.278 -30.347 -28.931  0.00  0.00    -0.061 A 
ATOM     26  C   UNL A   1      29.985 -30.018 -30.254  0.00  0.00    -0.062 A 
ATOM     27  C   UNL A   1      30.410 -30.848 -31.290  0.00  0.00    -0.061 A 
ATOM     28  C   UNL A   1      31.127 -32.012 -31.002  0.00  0.00    -0.055 A 
ENDBRANCH  22  23
ENDBRANCH  19  20
ENDBRANCH   9  18
TORSDOF 3
ENDMDL
MODEL 10
REMARK VINA RESULT:    -7.022      3.804      7.305
REMARK INTER + INTRA:          -9.085
REMARK INTER:                  -8.521
REMARK INTRA:                  -0.565
REMARK UNBOUND:                -0.832
REMARK  Name = cpd113.pdb
REMARK  6 active torsions:
REMARK  status: ('A' for Active; 'I' for Inactive)
REMARK    1  A    between atoms: C_1  and  C_2
REMARK    2  A    between atoms: C_6  and  C_7
REMARK    3  A    between atoms: C_9  and  N_10
REMARK    4  A    between atoms: C_11  and  C_12
REMARK    5  A    between atoms: C_12  and  C_13
REMARK    6  A    between atoms: C_14  and  C_15
REMARK                            x       y       z     vdW  Elec       q    Type
REMARK                         _______ _______ _______ _____ _____    ______ ____
ROOT
ATOM      1  C   UNL A   1      31.712 -37.223 -30.969  0.00  0.00    -0.046 C 
ATOM      2  C   UNL A   1      32.833 -37.587 -30.046  0.00  0.00    -0.085 C 
ATOM      3  C   UNL A   1      32.835 -38.492 -29.042  0.00  0.00    -0.035 C 
ATOM      4  C   UNL A   1      31.619 -39.308 -28.633  0.00  0.00    +0.006 C 
ATOM      5  C   UNL A   1      31.936 -40.769 -28.411  0.00  0.00    -0.077 C 
ATOM      6  C   UNL A   1      33.165 -41.236 -28.134  0.00  0.00    -0.073 C 
ATOM      7  C   UNL A   1      33.444 -42.692 -27.907  0.00  0.00    -0.044 C 
ATOM      8  C   UNL A   1      34.348 -40.300 -28.033  0.00  0.00    +0.001 C 
ATOM      9  C   UNL A   1      33.996 -38.770 -28.077  0.00  0.00    +0.113 C 
ATOM     10  C   UNL A   1      33.552 -38.345 -26.667  0.00  0.00    -0.000 C 
ATOM     11  C   UNL A   1      34.333 -37.788 -25.724  0.00  0.00    -0.068 C 
ATOM     12  C   UNL A   1      33.838 -37.448 -24.357  0.00  0.00    +0.045 C 
ATOM     13  C   UNL A   1      32.552 -38.193 -24.027  0.00  0.00    +0.240 C 
ATOM     14  O   UNL A   1      32.294 -38.489 -22.862  0.00  0.00    -0.273 OA
ATOM     15  N   UNL A   1      31.664 -38.420 -25.051  0.00  0.00    -0.185 NA
ATOM     16  C   UNL A   1      32.115 -38.505 -26.264  0.00  0.00    +0.040 C 
ATOM     17  C   UNL A   1      31.062 -38.692 -27.353  0.00  0.00    -0.002 C 
ENDROOT
BRANCH   9  18
ATOM     18  N   UNL A   1      35.219 -37.993 -28.401  0.00  0.00    -0.275 NA
ATOM     19  C   UNL A   1      36.245 -38.603 -28.877  0.00  0.00    +0.026 C 
BRANCH  19  20
ATOM     20  C   UNL A   1      37.515 -37.897 -29.209  0.00  0.00    -0.032 C 
ATOM     21  C   UNL A   1      38.624 -37.999 -28.205  0.00  0.00    -0.038 C 
ATOM     22  C   UNL A   1      37.539 -37.251 -30.389  0.00  0.00    -0.050 C 
BRANCH  22  23
ATOM     23  C   UNL A   1      38.677 -36.480 -30.898  0.00  0.00    -0.025 A 
ATOM     24  C   UNL A   1      39.946 -37.070 -30.941  0.00  0.00    -0.055 A 
ATOM     25  C   UNL A   1      41.036 -36.355 -31.443  0.00  0.00    -0.061 A 
ATOM     26  C   UNL A   1      40.863 -35.052 -31.909  0.00  0.00    -0.062 A 
ATOM     27  C   UNL A   1      39.600 -34.462 -31.877  0.00  0.00    -0.061 A 
ATOM     28  C   UNL A   1      38.509 -35.176 -31.376  0.00  0.00    -0.055 A 
ENDBRANCH  22  23
ENDBRANCH  19  20
ENDBRANCH   9  18
TORSDOF 3
ENDMDL
MODEL 11
REMARK VINA RESULT:    -7.018     17.956     20.486
REMARK INTER + INTRA:          -9.081
REMARK INTER:                  -8.278
REMARK INTRA:                  -0.802
REMARK UNBOUND:                -0.832
REMARK  Name = cpd113.pdb
REMARK  6 active torsions:
REMARK  status: ('A' for Active; 'I' for Inactive)
REMARK    1  A    between atoms: C_1  and  C_2
REMARK    2  A    between atoms: C_6  and  C_7
REMARK    3  A    between atoms: C_9  and  N_10
REMARK    4  A    between atoms: C_11  and  C_12
REMARK    5  A    between atoms: C_12  and  C_13
REMARK    6  A    between atoms: C_14  and  C_15
REMARK                            x       y       z     vdW  Elec       q    Type
REMARK                         _______ _______ _______ _____ _____    ______ ____
ROOT
ATOM      1  C   UNL A   1      41.598 -15.443 -40.137  0.00  0.00    -0.046 C 
ATOM      2  C   UNL A   1      41.795 -16.846 -39.654  0.00  0.00    -0.085 C 
ATOM      3  C   UNL A   1      42.925 -17.587 -39.660  0.00  0.00    -0.035 C 
ATOM      4  C   UNL A   1      44.250 -17.108 -40.230  0.00  0.00    +0.006 C 
ATOM      5  C   UNL A   1      45.424 -17.412 -39.328  0.00  0.00    -0.077 C 
ATOM      6  C   UNL A   1      45.421 -18.374 -38.390  0.00  0.00    -0.073 C 
ATOM      7  C   UNL A   1      46.608 -18.658 -37.518  0.00  0.00    -0.044 C 
ATOM      8  C   UNL A   1      44.199 -19.236 -38.165  0.00  0.00    +0.001 C 
ATOM      9  C   UNL A   1      43.048 -19.053 -39.218  0.00  0.00    +0.113 C 
ATOM     10  C   UNL A   1      43.400 -19.893 -40.457  0.00  0.00    -0.000 C 
ATOM     11  C   UNL A   1      42.973 -21.141 -40.716  0.00  0.00    -0.068 C 
ATOM     12  C   UNL A   1      43.401 -21.913 -41.921  0.00  0.00    +0.045 C 
ATOM     13  C   UNL A   1      44.665 -21.331 -42.536  0.00  0.00    +0.240 C 
ATOM     14  O   UNL A   1      45.453 -22.064 -43.132  0.00  0.00    -0.273 OA
ATOM     15  N   UNL A   1      44.831 -19.968 -42.489  0.00  0.00    -0.185 NA
ATOM     16  C   UNL A   1      44.266 -19.301 -41.531  0.00  0.00    +0.040 C 
ATOM     17  C   UNL A   1      44.441 -17.786 -41.584  0.00  0.00    -0.002 C 
ENDROOT
BRANCH   9  18
ATOM     18  N   UNL A   1      41.784 -19.601 -38.665  0.00  0.00    -0.275 NA
ATOM     19  C   UNL A   1      41.806 -20.222 -37.540  0.00  0.00    +0.026 C 
BRANCH  19  20
ATOM     20  C   UNL A   1      40.584 -20.818 -36.930  0.00  0.00    -0.032 C 
ATOM     21  C   UNL A   1      39.483 -21.209 -37.869  0.00  0.00    -0.038 C 
ATOM     22  C   UNL A   1      40.602 -20.958 -35.591  0.00  0.00    -0.050 C 
BRANCH  22  23
ATOM     23  C   UNL A   1      39.501 -21.501 -34.791  0.00  0.00    -0.025 A 
ATOM     24  C   UNL A   1      38.595 -20.626 -34.181  0.00  0.00    -0.055 A 
ATOM     25  C   UNL A   1      37.529 -21.130 -33.431  0.00  0.00    -0.061 A 
ATOM     26  C   UNL A   1      37.360 -22.507 -33.293  0.00  0.00    -0.062 A 
ATOM     27  C   UNL A   1      38.254 -23.383 -33.905  0.00  0.00    -0.061 A 
ATOM     28  C   UNL A   1      39.320 -22.882 -34.655  0.00  0.00    -0.055 A 
ENDBRANCH  22  23
ENDBRANCH  19  20
ENDBRANCH   9  18
TORSDOF 3
ENDMDL
MODEL 12
REMARK VINA RESULT:    -6.845      2.537      4.207
REMARK INTER + INTRA:          -8.878
REMARK INTER:                  -7.951
REMARK INTRA:                  -0.927
REMARK UNBOUND:                -0.832
REMARK  Name = cpd113.pdb
REMARK  6 active torsions:
REMARK  status: ('A' for Active; 'I' for Inactive)
REMARK    1  A    between atoms: C_1  and  C_2
REMARK    2  A    between atoms: C_6  and  C_7
REMARK    3  A    between atoms: C_9  and  N_10
REMARK    4  A    between atoms: C_11  and  C_12
REMARK    5  A    between atoms: C_12  and  C_13
REMARK    6  A    between atoms: C_14  and  C_15
REMARK                            x       y       z     vdW  Elec       q    Type
REMARK                         _______ _______ _______ _____ _____    ______ ____
ROOT
ATOM      1  C   UNL A   1      33.125 -39.025 -32.816  0.00  0.00    -0.046 C 
ATOM      2  C   UNL A   1      33.442 -37.896 -31.885  0.00  0.00    -0.085 C 
ATOM      3  C   UNL A   1      34.363 -37.853 -30.897  0.00  0.00    -0.035 C 
ATOM      4  C   UNL A   1      35.253 -39.025 -30.517  0.00  0.00    +0.006 C 
ATOM      5  C   UNL A   1      36.698 -38.628 -30.316  0.00  0.00    -0.077 C 
ATOM      6  C   UNL A   1      37.100 -37.377 -30.032  0.00  0.00    -0.073 C 
ATOM      7  C   UNL A   1      38.541 -37.018 -29.827  0.00  0.00    -0.044 C 
ATOM      8  C   UNL A   1      36.100 -36.251 -29.901  0.00  0.00    +0.001 C 
ATOM      9  C   UNL A   1      34.591 -36.689 -29.923  0.00  0.00    +0.113 C 
ATOM     10  C   UNL A   1      34.217 -37.172 -28.511  0.00  0.00    -0.000 C 
ATOM     11  C   UNL A   1      33.634 -36.435 -27.550  0.00  0.00    -0.068 C 
ATOM     12  C   UNL A   1      33.347 -36.964 -26.183  0.00  0.00    +0.045 C 
ATOM     13  C   UNL A   1      34.169 -38.209 -25.882  0.00  0.00    +0.240 C 
ATOM     14  O   UNL A   1      34.500 -38.462 -24.725  0.00  0.00    -0.273 OA
ATOM     15  N   UNL A   1      34.428 -39.071 -26.920  0.00  0.00    -0.185 NA
ATOM     16  C   UNL A   1      34.466 -38.602 -28.129  0.00  0.00    +0.040 C 
ATOM     17  C   UNL A   1      34.694 -39.631 -29.233  0.00  0.00    -0.002 C 
ENDROOT
BRANCH   9  18
ATOM     18  N   UNL A   1      33.741 -35.508 -30.218  0.00  0.00    -0.275 NA
ATOM     19  C   UNL A   1      34.297 -34.399 -30.553  0.00  0.00    +0.026 C 
BRANCH  19  20
ATOM     20  C   UNL A   1      33.514 -33.166 -30.846  0.00  0.00    -0.032 C 
ATOM     21  C   UNL A   1      34.255 -32.034 -31.489  0.00  0.00    -0.038 C 
ATOM     22  C   UNL A   1      32.210 -33.203 -30.513  0.00  0.00    -0.050 C 
BRANCH  22  23
ATOM     23  C   UNL A   1      31.267 -32.096 -30.696  0.00  0.00    -0.025 A 
ATOM     24  C   UNL A   1      30.347 -32.141 -31.749  0.00  0.00    -0.055 A 
ATOM     25  C   UNL A   1      29.428 -31.102 -31.924  0.00  0.00    -0.061 A 
ATOM     26  C   UNL A   1      29.422 -30.019 -31.046  0.00  0.00    -0.062 A 
ATOM     27  C   UNL A   1      30.330 -29.974 -29.989  0.00  0.00    -0.061 A 
ATOM     28  C   UNL A   1      31.248 -31.011 -29.813  0.00  0.00    -0.055 A 
ENDBRANCH  22  23
ENDBRANCH  19  20
ENDBRANCH   9  18
TORSDOF 3
ENDMDL
MODEL 13
REMARK VINA RESULT:    -6.767     16.389     19.497
REMARK INTER + INTRA:          -8.786
REMARK INTER:                  -7.929
REMARK INTRA:                  -0.857
REMARK UNBOUND:                -0.832
REMARK  Name = cpd113.pdb
REMARK  6 active torsions:
REMARK  status: ('A' for Active; 'I' for Inactive)
REMARK    1  A    between atoms: C_1  and  C_2
REMARK    2  A    between atoms: C_6  and  C_7
REMARK    3  A    between atoms: C_9  and  N_10
REMARK    4  A    between atoms: C_11  and  C_12
REMARK    5  A    between atoms: C_12  and  C_13
REMARK    6  A    between atoms: C_14  and  C_15
REMARK                            x       y       z     vdW  Elec       q    Type
REMARK                         _______ _______ _______ _____ _____    ______ ____
ROOT
ATOM      1  C   UNL A   1      39.802 -23.681 -33.265  0.00  0.00    -0.046 C 
ATOM      2  C   UNL A   1      40.078 -22.656 -34.321  0.00  0.00    -0.085 C 
ATOM      3  C   UNL A   1      39.964 -21.312 -34.237  0.00  0.00    -0.035 C 
ATOM      4  C   UNL A   1      39.469 -20.578 -33.003  0.00  0.00    +0.006 C 
ATOM      5  C   UNL A   1      40.317 -19.377 -32.650  0.00  0.00    -0.077 C 
ATOM      6  C   UNL A   1      41.106 -18.733 -33.526  0.00  0.00    -0.073 C 
ATOM      7  C   UNL A   1      41.927 -17.536 -33.147  0.00  0.00    -0.044 C 
ATOM      8  C   UNL A   1      41.205 -19.189 -34.965  0.00  0.00    +0.001 C 
ATOM      9  C   UNL A   1      40.190 -20.313 -35.381  0.00  0.00    +0.113 C 
ATOM     10  C   UNL A   1      38.843 -19.641 -35.697  0.00  0.00    -0.000 C 
ATOM     11  C   UNL A   1      38.407 -19.273 -36.915  0.00  0.00    -0.068 C 
ATOM     12  C   UNL A   1      37.103 -18.579 -37.134  0.00  0.00    +0.045 C 
ATOM     13  C   UNL A   1      36.577 -17.957 -35.848  0.00  0.00    +0.240 C 
ATOM     14  O   UNL A   1      35.882 -16.944 -35.894  0.00  0.00    -0.273 OA
ATOM     15  N   UNL A   1      36.820 -18.622 -34.671  0.00  0.00    -0.185 NA
ATOM     16  C   UNL A   1      37.864 -19.387 -34.587  0.00  0.00    +0.040 C 
ATOM     17  C   UNL A   1      38.031 -20.142 -33.271  0.00  0.00    -0.002 C 
ENDROOT
BRANCH   9  18
ATOM     18  N   UNL A   1      40.659 -20.959 -36.634  0.00  0.00    -0.275 NA
ATOM     19  C   UNL A   1      41.835 -20.692 -37.078  0.00  0.00    +0.026 C 
BRANCH  19  20
ATOM     20  C   UNL A   1      42.369 -21.284 -38.336  0.00  0.00    -0.032 C 
ATOM     21  C   UNL A   1      41.652 -22.486 -38.873  0.00  0.00    -0.038 C 
ATOM     22  C   UNL A   1      43.437 -20.665 -38.871  0.00  0.00    -0.050 C 
BRANCH  22  23
ATOM     23  C   UNL A   1      44.129 -21.092 -40.091  0.00  0.00    -0.025 A 
ATOM     24  C   UNL A   1      43.615 -20.726 -41.340  0.00  0.00    -0.055 A 
ATOM     25  C   UNL A   1      44.274 -21.108 -42.511  0.00  0.00    -0.061 A 
ATOM     26  C   UNL A   1      45.451 -21.853 -42.439  0.00  0.00    -0.062 A 
ATOM     27  C   UNL A   1      45.973 -22.213 -41.198  0.00  0.00    -0.061 A 
ATOM     28  C   UNL A   1      45.316 -21.831 -40.027  0.00  0.00    -0.055 A 
ENDBRANCH  22  23
ENDBRANCH  19  20
ENDBRANCH   9  18
TORSDOF 3
ENDMDL
MODEL 14
REMARK VINA RESULT:    -6.749     16.183     19.317
REMARK INTER + INTRA:          -8.764
REMARK INTER:                  -7.865
REMARK INTRA:                  -0.900
REMARK UNBOUND:                -0.832
REMARK  Name = cpd113.pdb
REMARK  6 active torsions:
REMARK  status: ('A' for Active; 'I' for Inactive)
REMARK    1  A    between atoms: C_1  and  C_2
REMARK    2  A    between atoms: C_6  and  C_7
REMARK    3  A    between atoms: C_9  and  N_10
REMARK    4  A    between atoms: C_11  and  C_12
REMARK    5  A    between atoms: C_12  and  C_13
REMARK    6  A    between atoms: C_14  and  C_15
REMARK                            x       y       z     vdW  Elec       q    Type
REMARK                         _______ _______ _______ _____ _____    ______ ____
ROOT
ATOM      1  C   UNL A   1      41.037 -16.196 -33.477  0.00  0.00    -0.046 C 
ATOM      2  C   UNL A   1      40.878 -17.334 -34.437  0.00  0.00    -0.085 C 
ATOM      3  C   UNL A   1      39.864 -18.224 -34.525  0.00  0.00    -0.035 C 
ATOM      4  C   UNL A   1      38.671 -18.245 -33.586  0.00  0.00    +0.006 C 
ATOM      5  C   UNL A   1      37.353 -18.412 -34.308  0.00  0.00    -0.077 C 
ATOM      6  C   UNL A   1      37.233 -18.943 -35.536  0.00  0.00    -0.073 C 
ATOM      7  C   UNL A   1      35.909 -19.104 -36.222  0.00  0.00    -0.044 C 
ATOM      8  C   UNL A   1      38.449 -19.416 -36.301  0.00  0.00    +0.001 C 
ATOM      9  C   UNL A   1      39.792 -19.419 -35.486  0.00  0.00    +0.113 C 
ATOM     10  C   UNL A   1      39.833 -20.706 -34.645  0.00  0.00    -0.000 C 
ATOM     11  C   UNL A   1      40.437 -21.858 -34.986  0.00  0.00    -0.068 C 
ATOM     12  C   UNL A   1      40.389 -23.083 -34.134  0.00  0.00    +0.045 C 
ATOM     13  C   UNL A   1      39.254 -23.017 -33.123  0.00  0.00    +0.240 C 
ATOM     14  O   UNL A   1      38.710 -24.051 -32.739  0.00  0.00    -0.273 OA
ATOM     15  N   UNL A   1      38.942 -21.789 -32.591  0.00  0.00    -0.185 NA
ATOM     16  C   UNL A   1      39.191 -20.724 -33.287  0.00  0.00    +0.040 C 
ATOM     17  C   UNL A   1      38.878 -19.395 -32.604  0.00  0.00    -0.002 C 
ENDROOT
BRANCH   9  18
ATOM     18  N   UNL A   1      40.939 -19.479 -36.428  0.00  0.00    -0.275 NA
ATOM     19  C   UNL A   1      40.716 -19.449 -37.693  0.00  0.00    +0.026 C 
BRANCH  19  20
ATOM     20  C   UNL A   1      41.811 -19.524 -38.701  0.00  0.00    -0.032 C 
ATOM     21  C   UNL A   1      42.290 -18.224 -39.273  0.00  0.00    -0.038 C 
ATOM     22  C   UNL A   1      42.268 -20.758 -38.983  0.00  0.00    -0.050 C 
BRANCH  22  23
ATOM     23  C   UNL A   1      43.324 -21.058 -39.955  0.00  0.00    -0.025 A 
ATOM     24  C   UNL A   1      42.979 -21.352 -41.279  0.00  0.00    -0.055 A 
ATOM     25  C   UNL A   1      43.975 -21.620 -42.222  0.00  0.00    -0.061 A 
ATOM     26  C   UNL A   1      45.318 -21.590 -41.847  0.00  0.00    -0.062 A 
ATOM     27  C   UNL A   1      45.668 -21.289 -40.532  0.00  0.00    -0.061 A 
ATOM     28  C   UNL A   1      44.674 -21.020 -39.589  0.00  0.00    -0.055 A 
ENDBRANCH  22  23
ENDBRANCH  19  20
ENDBRANCH   9  18
TORSDOF 3
ENDMDL
MODEL 15
REMARK VINA RESULT:    -6.624     18.021     20.443
REMARK INTER + INTRA:          -8.618
REMARK INTER:                  -7.828
REMARK INTRA:                  -0.790
REMARK UNBOUND:                -0.832
REMARK  Name = cpd113.pdb
REMARK  6 active torsions:
REMARK  status: ('A' for Active; 'I' for Inactive)
REMARK    1  A    between atoms: C_1  and  C_2
REMARK    2  A    between atoms: C_6  and  C_7
REMARK    3  A    between atoms: C_9  and  N_10
REMARK    4  A    between atoms: C_11  and  C_12
REMARK    5  A    between atoms: C_12  and  C_13
REMARK    6  A    between atoms: C_14  and  C_15
REMARK                            x       y       z     vdW  Elec       q    Type
REMARK                         _______ _______ _______ _____ _____    ______ ____
ROOT
ATOM      1  C   UNL A   1      43.815 -15.063 -36.039  0.00  0.00    -0.046 C 
ATOM      2  C   UNL A   1      43.804 -16.546 -36.246  0.00  0.00    -0.085 C 
ATOM      3  C   UNL A   1      44.850 -17.372 -36.469  0.00  0.00    -0.035 C 
ATOM      4  C   UNL A   1      46.289 -16.901 -36.598  0.00  0.00    +0.006 C 
ATOM      5  C   UNL A   1      47.261 -17.754 -35.815  0.00  0.00    -0.077 C 
ATOM      6  C   UNL A   1      47.014 -19.021 -35.440  0.00  0.00    -0.073 C 
ATOM      7  C   UNL A   1      48.006 -19.845 -34.674  0.00  0.00    -0.044 C 
ATOM      8  C   UNL A   1      45.702 -19.691 -35.782  0.00  0.00    +0.001 C 
ATOM      9  C   UNL A   1      44.769 -18.879 -36.750  0.00  0.00    +0.113 C 
ATOM     10  C   UNL A   1      45.254 -19.120 -38.189  0.00  0.00    -0.000 C 
ATOM     11  C   UNL A   1      44.772 -20.038 -39.045  0.00  0.00    -0.068 C 
ATOM     12  C   UNL A   1      45.332 -20.245 -40.414  0.00  0.00    +0.045 C 
ATOM     13  C   UNL A   1      46.728 -19.654 -40.542  0.00  0.00    +0.240 C 
ATOM     14  O   UNL A   1      47.540 -20.156 -41.317  0.00  0.00    -0.273 OA
ATOM     15  N   UNL A   1      47.000 -18.500 -39.847  0.00  0.00    -0.185 NA
ATOM     16  C   UNL A   1      46.339 -18.253 -38.759  0.00  0.00    +0.040 C 
ATOM     17  C   UNL A   1      46.651 -16.922 -38.080  0.00  0.00    -0.002 C 
ENDROOT
BRANCH   9  18
ATOM     18  N   UNL A   1      43.386 -19.413 -36.662  0.00  0.00    -0.275 NA
ATOM     19  C   UNL A   1      43.088 -20.238 -35.723  0.00  0.00    +0.026 C 
BRANCH  19  20
ATOM     20  C   UNL A   1      41.729 -20.833 -35.580  0.00  0.00    -0.032 C 
ATOM     21  C   UNL A   1      40.966 -21.082 -36.845  0.00  0.00    -0.038 C 
ATOM     22  C   UNL A   1      41.333 -21.099 -34.322  0.00  0.00    -0.050 C 
BRANCH  22  23
ATOM     23  C   UNL A   1      40.031 -21.665 -33.956  0.00  0.00    -0.025 A 
ATOM     24  C   UNL A   1      39.081 -20.857 -33.321  0.00  0.00    -0.055 A 
ATOM     25  C   UNL A   1      37.828 -21.376 -32.985  0.00  0.00    -0.061 A 
ATOM     26  C   UNL A   1      37.518 -22.702 -33.286  0.00  0.00    -0.062 A 
ATOM     27  C   UNL A   1      38.456 -23.510 -33.926  0.00  0.00    -0.061 A 
ATOM     28  C   UNL A   1      39.709 -22.992 -34.263  0.00  0.00    -0.055 A 
ENDBRANCH  22  23
ENDBRANCH  19  20
ENDBRANCH   9  18
TORSDOF 3
ENDMDL
MODEL 16
REMARK VINA RESULT:    -6.526     22.250     24.771
REMARK INTER + INTRA:          -8.502
REMARK INTER:                  -7.537
REMARK INTRA:                  -0.965
REMARK UNBOUND:                -0.832
REMARK  Name = cpd113.pdb
REMARK  6 active torsions:
REMARK  status: ('A' for Active; 'I' for Inactive)
REMARK    1  A    between atoms: C_1  and  C_2
REMARK    2  A    between atoms: C_6  and  C_7
REMARK    3  A    between atoms: C_9  and  N_10
REMARK    4  A    between atoms: C_11  and  C_12
REMARK    5  A    between atoms: C_12  and  C_13
REMARK    6  A    between atoms: C_14  and  C_15
REMARK                            x       y       z     vdW  Elec       q    Type
REMARK                         _______ _______ _______ _____ _____    ______ ____
ROOT
ATOM      1  C   UNL A   1      47.644 -17.957 -35.417  0.00  0.00    -0.046 C 
ATOM      2  C   UNL A   1      47.301 -17.752 -36.860  0.00  0.00    -0.085 C 
ATOM      3  C   UNL A   1      46.402 -18.422 -37.614  0.00  0.00    -0.035 C 
ATOM      4  C   UNL A   1      45.573 -19.590 -37.107  0.00  0.00    +0.006 C 
ATOM      5  C   UNL A   1      44.118 -19.498 -37.505  0.00  0.00    -0.077 C 
ATOM      6  C   UNL A   1      43.669 -18.776 -38.546  0.00  0.00    -0.073 C 
ATOM      7  C   UNL A   1      42.218 -18.714 -38.922  0.00  0.00    -0.044 C 
ATOM      8  C   UNL A   1      44.623 -17.977 -39.406  0.00  0.00    +0.001 C 
ATOM      9  C   UNL A   1      46.147 -18.216 -39.114  0.00  0.00    +0.113 C 
ATOM     10  C   UNL A   1      46.575 -19.498 -39.848  0.00  0.00    -0.000 C 
ATOM     11  C   UNL A   1      47.149 -19.562 -41.063  0.00  0.00    -0.068 C 
ATOM     12  C   UNL A   1      47.490 -20.853 -41.732  0.00  0.00    +0.045 C 
ATOM     13  C   UNL A   1      46.730 -22.019 -41.118  0.00  0.00    +0.240 C 
ATOM     14  O   UNL A   1      46.438 -22.995 -41.807  0.00  0.00    -0.273 OA
ATOM     15  N   UNL A   1      46.484 -21.981 -39.766  0.00  0.00    -0.185 NA
ATOM     16  C   UNL A   1      46.398 -20.829 -39.177  0.00  0.00    +0.040 C 
ATOM     17  C   UNL A   1      46.188 -20.869 -37.666  0.00  0.00    -0.002 C 
ENDROOT
BRANCH   9  18
ATOM     18  N   UNL A   1      46.939 -17.100 -39.691  0.00  0.00    -0.275 NA
ATOM     19  C   UNL A   1      46.329 -16.069 -40.156  0.00  0.00    +0.026 C 
BRANCH  19  20
ATOM     20  C   UNL A   1      47.051 -14.919 -40.768  0.00  0.00    -0.032 C 
ATOM     21  C   UNL A   1      46.206 -13.817 -41.334  0.00  0.00    -0.038 C 
ATOM     22  C   UNL A   1      48.395 -14.981 -40.734  0.00  0.00    -0.050 C 
BRANCH  22  23
ATOM     23  C   UNL A   1      49.295 -13.968 -41.294  0.00  0.00    -0.025 A 
ATOM     24  C   UNL A   1      49.778 -12.945 -40.471  0.00  0.00    -0.055 A 
ATOM     25  C   UNL A   1      50.653 -11.984 -40.986  0.00  0.00    -0.061 A 
ATOM     26  C   UNL A   1      51.051 -12.045 -42.321  0.00  0.00    -0.062 A 
ATOM     27  C   UNL A   1      50.580 -13.067 -43.143  0.00  0.00    -0.061 A 
ATOM     28  C   UNL A   1      49.706 -14.028 -42.630  0.00  0.00    -0.055 A 
ENDBRANCH  22  23
ENDBRANCH  19  20
ENDBRANCH   9  18
TORSDOF 3
ENDMDL
MODEL 17
REMARK VINA RESULT:    -6.417     22.354     24.867
REMARK INTER + INTRA:          -8.374
REMARK INTER:                  -7.480
REMARK INTRA:                  -0.894
REMARK UNBOUND:                -0.832
REMARK  Name = cpd113.pdb
REMARK  6 active torsions:
REMARK  status: ('A' for Active; 'I' for Inactive)
REMARK    1  A    between atoms: C_1  and  C_2
REMARK    2  A    between atoms: C_6  and  C_7
REMARK    3  A    between atoms: C_9  and  N_10
REMARK    4  A    between atoms: C_11  and  C_12
REMARK    5  A    between atoms: C_12  and  C_13
REMARK    6  A    between atoms: C_14  and  C_15
REMARK                            x       y       z     vdW  Elec       q    Type
REMARK                         _______ _______ _______ _____ _____    ______ ____
ROOT
ATOM      1  C   UNL A   1      47.748 -18.387 -35.143  0.00  0.00    -0.046 C 
ATOM      2  C   UNL A   1      47.503 -18.036 -36.578  0.00  0.00    -0.085 C 
ATOM      3  C   UNL A   1      46.547 -18.508 -37.407  0.00  0.00    -0.035 C 
ATOM      4  C   UNL A   1      45.528 -19.563 -37.013  0.00  0.00    +0.006 C 
ATOM      5  C   UNL A   1      44.122 -19.221 -37.451  0.00  0.00    -0.077 C 
ATOM      6  C   UNL A   1      43.835 -18.370 -38.451  0.00  0.00    -0.073 C 
ATOM      7  C   UNL A   1      42.428 -18.060 -38.869  0.00  0.00    -0.044 C 
ATOM      8  C   UNL A   1      44.935 -17.674 -39.220  0.00  0.00    +0.001 C 
ATOM      9  C   UNL A   1      46.392 -18.166 -38.896  0.00  0.00    +0.113 C 
ATOM     10  C   UNL A   1      46.650 -19.447 -39.706  0.00  0.00    -0.000 C 
ATOM     11  C   UNL A   1      47.260 -19.520 -40.903  0.00  0.00    -0.068 C 
ATOM     12  C   UNL A   1      47.430 -20.800 -41.651  0.00  0.00    +0.045 C 
ATOM     13  C   UNL A   1      46.474 -21.873 -41.148  0.00  0.00    +0.240 C 
ATOM     14  O   UNL A   1      46.067 -22.743 -41.915  0.00  0.00    -0.273 OA
ATOM     15  N   UNL A   1      46.178 -21.886 -39.806  0.00  0.00    -0.185 NA
ATOM     16  C   UNL A   1      46.243 -20.776 -39.139  0.00  0.00    +0.040 C 
ATOM     17  C   UNL A   1      45.964 -20.883 -37.642  0.00  0.00    -0.002 C 
ENDROOT
BRANCH   9  18
ATOM     18  N   UNL A   1      47.369 -17.150 -39.364  0.00  0.00    -0.275 NA
ATOM     19  C   UNL A   1      46.948 -15.992 -39.728  0.00  0.00    +0.026 C 
BRANCH  19  20
ATOM     20  C   UNL A   1      47.863 -14.927 -40.228  0.00  0.00    -0.032 C 
ATOM     21  C   UNL A   1      48.322 -15.046 -41.650  0.00  0.00    -0.038 C 
ATOM     22  C   UNL A   1      48.171 -13.956 -39.349  0.00  0.00    -0.050 C 
BRANCH  22  23
ATOM     23  C   UNL A   1      49.066 -12.828 -39.628  0.00  0.00    -0.025 A 
ATOM     24  C   UNL A   1      50.415 -12.913 -39.267  0.00  0.00    -0.055 A 
ATOM     25  C   UNL A   1      51.284 -11.854 -39.544  0.00  0.00    -0.061 A 
ATOM     26  C   UNL A   1      50.810 -10.711 -40.186  0.00  0.00    -0.062 A 
ATOM     27  C   UNL A   1      49.469 -10.624 -40.556  0.00  0.00    -0.061 A 
ATOM     28  C   UNL A   1      48.600 -11.681 -40.281  0.00  0.00    -0.055 A 
ENDBRANCH  22  23
ENDBRANCH  19  20
ENDBRANCH   9  18
TORSDOF 3
ENDMDL
MODEL 18
REMARK VINA RESULT:    -6.318     16.298     19.632
REMARK INTER + INTRA:          -8.258
REMARK INTER:                  -7.300
REMARK INTRA:                  -0.958
REMARK UNBOUND:                -0.832
REMARK  Name = cpd113.pdb
REMARK  6 active torsions:
REMARK  status: ('A' for Active; 'I' for Inactive)
REMARK    1  A    between atoms: C_1  and  C_2
REMARK    2  A    between atoms: C_6  and  C_7
REMARK    3  A    between atoms: C_9  and  N_10
REMARK    4  A    between atoms: C_11  and  C_12
REMARK    5  A    between atoms: C_12  and  C_13
REMARK    6  A    between atoms: C_14  and  C_15
REMARK                            x       y       z     vdW  Elec       q    Type
REMARK                         _______ _______ _______ _____ _____    ______ ____
ROOT
ATOM      1  C   UNL A   1      39.278 -16.461 -31.408  0.00  0.00    -0.046 C 
ATOM      2  C   UNL A   1      39.854 -17.357 -32.460  0.00  0.00    -0.085 C 
ATOM      3  C   UNL A   1      39.221 -18.281 -33.216  0.00  0.00    -0.035 C 
ATOM      4  C   UNL A   1      37.744 -18.614 -33.088  0.00  0.00    +0.006 C 
ATOM      5  C   UNL A   1      37.043 -18.714 -34.424  0.00  0.00    -0.077 C 
ATOM      6  C   UNL A   1      37.674 -18.958 -35.585  0.00  0.00    -0.073 C 
ATOM      7  C   UNL A   1      36.947 -19.063 -36.893  0.00  0.00    -0.044 C 
ATOM      8  C   UNL A   1      39.174 -19.144 -35.631  0.00  0.00    +0.001 C 
ATOM      9  C   UNL A   1      39.880 -19.226 -34.231  0.00  0.00    +0.113 C 
ATOM     10  C   UNL A   1      39.729 -20.664 -33.707  0.00  0.00    -0.000 C 
ATOM     11  C   UNL A   1      40.629 -21.655 -33.837  0.00  0.00    -0.068 C 
ATOM     12  C   UNL A   1      40.385 -23.042 -33.344  0.00  0.00    +0.045 C 
ATOM     13  C   UNL A   1      38.904 -23.302 -33.112  0.00  0.00    +0.240 C 
ATOM     14  O   UNL A   1      38.449 -24.436 -33.245  0.00  0.00    -0.273 OA
ATOM     15  N   UNL A   1      38.136 -22.257 -32.655  0.00  0.00    -0.185 NA
ATOM     16  C   UNL A   1      38.498 -21.044 -32.935  0.00  0.00    +0.040 C 
ATOM     17  C   UNL A   1      37.633 -19.938 -32.338  0.00  0.00    -0.002 C 
ENDROOT
BRANCH   9  18
ATOM     18  N   UNL A   1      41.334 -18.975 -34.399  0.00  0.00    -0.275 NA
ATOM     19  C   UNL A   1      41.779 -18.588 -35.540  0.00  0.00    +0.026 C 
BRANCH  19  20
ATOM     20  C   UNL A   1      43.225 -18.335 -35.793  0.00  0.00    -0.032 C 
ATOM     21  C   UNL A   1      43.559 -17.368 -36.888  0.00  0.00    -0.038 C 
ATOM     22  C   UNL A   1      44.087 -18.994 -34.996  0.00  0.00    -0.050 C 
BRANCH  22  23
ATOM     23  C   UNL A   1      45.547 -18.905 -35.087  0.00  0.00    -0.025 A 
ATOM     24  C   UNL A   1      46.241 -19.781 -35.928  0.00  0.00    -0.055 A 
ATOM     25  C   UNL A   1      47.631 -19.695 -36.040  0.00  0.00    -0.061 A 
ATOM     26  C   UNL A   1      48.332 -18.730 -35.317  0.00  0.00    -0.062 A 
ATOM     27  C   UNL A   1      47.646 -17.848 -34.485  0.00  0.00    -0.061 A 
ATOM     28  C   UNL A   1      46.256 -17.933 -34.372  0.00  0.00    -0.055 A 
ENDBRANCH  22  23
ENDBRANCH  19  20
ENDBRANCH   9  18
TORSDOF 3
ENDMDL
MODEL 19
REMARK VINA RESULT:    -6.298     23.273     25.836
REMARK INTER + INTRA:          -8.235
REMARK INTER:                  -7.308
REMARK INTRA:                  -0.927
REMARK UNBOUND:                -0.832
REMARK  Name = cpd113.pdb
REMARK  6 active torsions:
REMARK  status: ('A' for Active; 'I' for Inactive)
REMARK    1  A    between atoms: C_1  and  C_2
REMARK    2  A    between atoms: C_6  and  C_7
REMARK    3  A    between atoms: C_9  and  N_10
REMARK    4  A    between atoms: C_11  and  C_12
REMARK    5  A    between atoms: C_12  and  C_13
REMARK    6  A    between atoms: C_14  and  C_15
REMARK                            x       y       z     vdW  Elec       q    Type
REMARK                         _______ _______ _______ _____ _____    ______ ____
ROOT
ATOM      1  C   UNL A   1      42.596 -15.819 -40.633  0.00  0.00    -0.046 C 
ATOM      2  C   UNL A   1      44.047 -15.876 -40.269  0.00  0.00    -0.085 C 
ATOM      3  C   UNL A   1      44.820 -16.966 -40.063  0.00  0.00    -0.035 C 
ATOM      4  C   UNL A   1      44.306 -18.394 -40.129  0.00  0.00    +0.006 C 
ATOM      5  C   UNL A   1      45.218 -19.314 -40.908  0.00  0.00    -0.077 C 
ATOM      6  C   UNL A   1      46.523 -19.074 -41.119  0.00  0.00    -0.073 C 
ATOM      7  C   UNL A   1      47.404 -20.014 -41.887  0.00  0.00    -0.044 C 
ATOM      8  C   UNL A   1      47.181 -17.823 -40.580  0.00  0.00    +0.001 C 
ATOM      9  C   UNL A   1      46.289 -16.961 -39.617  0.00  0.00    +0.113 C 
ATOM     10  C   UNL A   1      46.360 -17.590 -38.215  0.00  0.00    -0.000 C 
ATOM     11  C   UNL A   1      47.189 -17.222 -37.222  0.00  0.00    -0.068 C 
ATOM     12  C   UNL A   1      47.232 -17.917 -35.901  0.00  0.00    +0.045 C 
ATOM     13  C   UNL A   1      46.601 -19.300 -35.976  0.00  0.00    +0.240 C 
ATOM     14  O   UNL A   1      46.996 -20.198 -35.236  0.00  0.00    -0.273 OA
ATOM     15  N   UNL A   1      45.524 -19.466 -36.813  0.00  0.00    -0.185 NA
ATOM     16  C   UNL A   1      45.412 -18.696 -37.851  0.00  0.00    +0.040 C 
ATOM     17  C   UNL A   1      44.157 -18.896 -38.696  0.00  0.00    -0.002 C 
ENDROOT
BRANCH   9  18
ATOM     18  N   UNL A   1      46.860 -15.594 -39.510  0.00  0.00    -0.275 NA
ATOM     19  C   UNL A   1      47.787 -15.234 -40.323  0.00  0.00    +0.026 C 
BRANCH  19  20
ATOM     20  C   UNL A   1      48.423 -13.888 -40.268  0.00  0.00    -0.032 C 
ATOM     21  C   UNL A   1      48.197 -12.986 -41.443  0.00  0.00    -0.038 C 
ATOM     22  C   UNL A   1      49.126 -13.614 -39.153  0.00  0.00    -0.050 C 
BRANCH  22  23
ATOM     23  C   UNL A   1      49.845 -12.361 -38.903  0.00  0.00    -0.025 A 
ATOM     24  C   UNL A   1      51.145 -12.202 -39.394  0.00  0.00    -0.055 A 
ATOM     25  C   UNL A   1      51.836 -11.006 -39.181  0.00  0.00    -0.061 A 
ATOM     26  C   UNL A   1      51.229  -9.964 -38.481  0.00  0.00    -0.062 A 
ATOM     27  C   UNL A   1      49.930 -10.114 -37.996  0.00  0.00    -0.061 A 
ATOM     28  C   UNL A   1      49.239 -11.308 -38.209  0.00  0.00    -0.055 A 
ENDBRANCH  22  23
ENDBRANCH  19  20
ENDBRANCH   9  18
TORSDOF 3
ENDMDL
MODEL 20
REMARK VINA RESULT:    -6.115     18.517     21.031
REMARK INTER + INTRA:          -8.019
REMARK INTER:                  -7.067
REMARK INTRA:                  -0.952
REMARK UNBOUND:                -0.832
REMARK  Name = cpd113.pdb
REMARK  6 active torsions:
REMARK  status: ('A' for Active; 'I' for Inactive)
REMARK    1  A    between atoms: C_1  and  C_2
REMARK    2  A    between atoms: C_6  and  C_7
REMARK    3  A    between atoms: C_9  and  N_10
REMARK    4  A    between atoms: C_11  and  C_12
REMARK    5  A    between atoms: C_12  and  C_13
REMARK    6  A    between atoms: C_14  and  C_15
REMARK                            x       y       z     vdW  Elec       q    Type
REMARK                         _______ _______ _______ _____ _____    ______ ____
ROOT
ATOM      1  C   UNL A   1      44.225 -14.482 -37.010  0.00  0.00    -0.046 C 
ATOM      2  C   UNL A   1      44.208 -15.936 -36.655  0.00  0.00    -0.085 C 
ATOM      3  C   UNL A   1      45.222 -16.828 -36.712  0.00  0.00    -0.035 C 
ATOM      4  C   UNL A   1      46.616 -16.495 -37.215  0.00  0.00    +0.006 C 
ATOM      5  C   UNL A   1      47.710 -17.042 -36.327  0.00  0.00    -0.077 C 
ATOM      6  C   UNL A   1      47.545 -18.074 -35.482  0.00  0.00    -0.073 C 
ATOM      7  C   UNL A   1      48.655 -18.600 -34.622  0.00  0.00    -0.044 C 
ATOM      8  C   UNL A   1      46.207 -18.768 -35.356  0.00  0.00    +0.001 C 
ATOM      9  C   UNL A   1      45.124 -18.329 -36.405  0.00  0.00    +0.113 C 
ATOM     10  C   UNL A   1      45.389 -19.098 -37.710  0.00  0.00    -0.000 C 
ATOM     11  C   UNL A   1      44.797 -20.244 -38.090  0.00  0.00    -0.068 C 
ATOM     12  C   UNL A   1      45.146 -20.958 -39.353  0.00  0.00    +0.045 C 
ATOM     13  C   UNL A   1      46.497 -20.512 -39.893  0.00  0.00    +0.240 C 
ATOM     14  O   UNL A   1      47.190 -21.294 -40.542  0.00  0.00    -0.273 OA
ATOM     15  N   UNL A   1      46.852 -19.196 -39.719  0.00  0.00    -0.185 NA
ATOM     16  C   UNL A   1      46.360 -18.542 -38.712  0.00  0.00    +0.040 C 
ATOM     17  C   UNL A   1      46.748 -17.069 -38.622  0.00  0.00    -0.002 C 
ENDROOT
BRANCH   9  18
ATOM     18  N   UNL A   1      43.780 -18.738 -35.924  0.00  0.00    -0.275 NA
ATOM     19  C   UNL A   1      43.652 -19.205 -34.734  0.00  0.00    +0.026 C 
BRANCH  19  20
ATOM     20  C   UNL A   1      42.341 -19.655 -34.186  0.00  0.00    -0.032 C 
ATOM     21  C   UNL A   1      42.380 -20.467 -32.927  0.00  0.00    -0.038 C 
ATOM     22  C   UNL A   1      41.252 -19.270 -34.876  0.00  0.00    -0.050 C 
BRANCH  22  23
ATOM     23  C   UNL A   1      39.872 -19.618 -34.523  0.00  0.00    -0.025 A 
ATOM     24  C   UNL A   1      39.275 -20.743 -35.102  0.00  0.00    -0.055 A 
ATOM     25  C   UNL A   1      37.967 -21.099 -34.761  0.00  0.00    -0.061 A 
ATOM     26  C   UNL A   1      37.254 -20.336 -33.837  0.00  0.00    -0.062 A 
ATOM     27  C   UNL A   1      37.846 -19.219 -33.251  0.00  0.00    -0.061 A 
ATOM     28  C   UNL A   1      39.153 -18.863 -33.590  0.00  0.00    -0.055 A 
ENDBRANCH  22  23
ENDBRANCH  19  20
ENDBRANCH   9  18
TORSDOF 3
ENDMDL
