REMARK  Name = cpd176.pdb
REMARK  19 active torsions:
REMARK  status: ('A' for Active; 'I' for Inactive)
REMARK    1  A    between atoms: C_1  and  C_2
REMARK    2  A    between atoms: C_6  and  N_7
REMARK    3  A    between atoms: N_7  and  C_8
REMARK    4  A    between atoms: C_13  and  C_14
REMARK    5  A    between atoms: N_16  and  C_17
REMARK    6  A    between atoms: C_17  and  C_18
REMARK    7  A    between atoms: C_18  and  C_19
REMARK    8  A    between atoms: C_19  and  C_20
REMARK    9  A    between atoms: C_20  and  C_21
REMARK   10  A    between atoms: C_21  and  C_22
REMARK   11  A    between atoms: C_22  and  C_23
REMARK   12  A    between atoms: C_23  and  C_24
REMARK   13  A    between atoms: C_24  and  C_25
REMARK   14  A    between atoms: C_25  and  C_26
REMARK   15  A    between atoms: C_26  and  C_27
REMARK   16  A    between atoms: C_27  and  C_28
REMARK   17  A    between atoms: C_28  and  N_29
REMARK   18  A    between atoms: N_29  and  C_30
REMARK   19  A    between atoms: C_45  and  C_46
REMARK                            x       y       z     vdW  Elec       q    Type
REMARK                         _______ _______ _______ _____ _____    ______ ____
ROOT
ATOM      1  C   UNL A   1      -7.175  -6.240  -1.130  0.00  0.00    -0.053 C 
ENDROOT
BRANCH   1   2
ATOM      2  C   UNL A   1      -6.027  -5.880  -0.179  0.00  0.00    -0.053 C 
BRANCH   2   3
ATOM      3  C   UNL A   1      -5.256  -4.629  -0.615  0.00  0.00    -0.052 C 
BRANCH   3   4
ATOM      4  C   UNL A   1      -4.056  -4.365   0.300  0.00  0.00    -0.037 C 
BRANCH   4   5
ATOM      5  C   UNL A   1      -3.317  -3.073  -0.058  0.00  0.00    +0.012 C 
BRANCH   5   8
ATOM      6  C   UNL A   1      -1.617  -3.739  -1.818  0.00  0.00    +0.246 C 
ATOM      7  O   UNL A   1      -1.430  -3.963  -3.009  0.00  0.00    -0.270 OA
ATOM      8  N   UNL A   1      -2.758  -3.099  -1.401  0.00  0.00    -0.311 N 
ATOM      9  H   UNL A   1      -3.255  -2.601  -2.090  0.00  0.00    +0.000 HD
BRANCH   6  15
ATOM     10  C   UNL A   1       0.136  -3.219  -0.081  0.00  0.00    +0.044 A 
ATOM     11  C   UNL A   1       1.052  -3.722   0.859  0.00  0.00    -0.040 A 
ATOM     12  C   UNL A   1       1.272  -5.096   0.997  0.00  0.00    -0.060 A 
ATOM     13  C   UNL A   1       0.570  -6.001   0.206  0.00  0.00    -0.061 A 
ATOM     14  C   UNL A   1      -0.371  -5.533  -0.707  0.00  0.00    -0.048 A 
ATOM     15  C   UNL A   1      -0.609  -4.156  -0.824  0.00  0.00    +0.058 A 
BRANCH  10  16
ATOM     16  N   UNL A   1      -0.094  -1.822  -0.183  0.00  0.00    -0.314 N 
ATOM     17  H   UNL A   1      -1.017  -1.545  -0.384  0.00  0.00    +0.000 HD
BRANCH  16  23
ATOM     18  C   UNL A   1       0.968   2.931   0.965  0.00  0.00    -0.039 C 
ATOM     19  C   UNL A   1       1.360   1.563   0.475  0.00  0.00    -0.046 A 
ATOM     20  C   UNL A   1       2.680   1.355   0.049  0.00  0.00    -0.058 A 
ATOM     21  C   UNL A   1       3.085   0.114  -0.431  0.00  0.00    -0.060 A 
ATOM     22  C   UNL A   1       2.175  -0.939  -0.486  0.00  0.00    -0.040 A 
ATOM     23  C   UNL A   1       0.859  -0.778  -0.028  0.00  0.00    +0.035 A 
ATOM     24  C   UNL A   1       0.441   0.486   0.452  0.00  0.00    -0.026 A 
ATOM     25  C   UNL A   1      -0.989   0.688   0.892  0.00  0.00    -0.038 C 
ENDBRANCH  16  23
ENDBRANCH  10  16
ENDBRANCH   6  15
ENDBRANCH   5   8
ENDBRANCH   4   5
ENDBRANCH   3   4
ENDBRANCH   2   3
ENDBRANCH   1   2
BRANCH   1  26
ATOM     26  C   UNL A   1      -8.553  -5.698  -0.730  0.00  0.00    -0.053 C 
BRANCH  26  27
ATOM     27  C   UNL A   1      -8.633  -4.175  -0.654  0.00  0.00    -0.053 C 
BRANCH  27  28
ATOM     28  C   UNL A   1     -10.080  -3.692  -0.513  0.00  0.00    -0.053 C 
BRANCH  28  29
ATOM     29  C   UNL A   1     -10.130  -2.178  -0.305  0.00  0.00    -0.053 C 
BRANCH  29  30
ATOM     30  C   UNL A   1     -11.540  -1.581  -0.345  0.00  0.00    -0.052 C 
BRANCH  30  31
ATOM     31  C   UNL A   1     -12.493  -2.127   0.723  0.00  0.00    -0.037 C 
BRANCH  31  32
ATOM     32  C   UNL A   1     -13.474  -3.158   0.158  0.00  0.00    +0.009 C 
BRANCH  32  33
ATOM     33  N   UNL A   1     -14.322  -3.663   1.248  0.00  0.00    -0.343 N 
ATOM     34  H   UNL A   1     -14.191  -3.443   2.199  0.00  0.00    +0.000 HD
BRANCH  33  35
ATOM     35  C   UNL A   1     -15.359  -4.512   0.755  0.00  0.00    +0.041 A 
ATOM     36  C   UNL A   1     -15.116  -5.897   0.670  0.00  0.00    -0.005 A 
ATOM     37  C   UNL A   1     -16.132  -6.702   0.154  0.00  0.00    +0.047 A 
ATOM     38  N   UNL A   1     -17.307  -6.209  -0.306  0.00  0.00    -0.251 NA
ATOM     39  C   UNL A   1     -17.530  -4.891  -0.244  0.00  0.00    +0.074 A 
ATOM     40  C   UNL A   1     -18.746  -4.425  -0.721  0.00  0.00    -0.017 A 
ATOM     41  C   UNL A   1     -19.061  -3.070  -0.700  0.00  0.00    +0.043 A 
ATOM     42 CL   UNL A   1     -20.580  -2.531  -1.302  0.00  0.00    -0.083 Cl
ATOM     43  C   UNL A   1     -18.155  -2.149  -0.196  0.00  0.00    -0.043 A 
ATOM     44  C   UNL A   1     -16.927  -2.599   0.288  0.00  0.00    -0.049 A 
ATOM     45  C   UNL A   1     -16.590  -3.978   0.276  0.00  0.00    +0.022 A 
ATOM     46  C   UNL A   1     -15.970  -8.195   0.019  0.00  0.00    -0.010 C 
ATOM     47  C   UNL A   1     -14.894  -8.768   0.932  0.00  0.00    -0.047 C 
ATOM     48  C   UNL A   1     -13.616  -7.954   0.799  0.00  0.00    -0.049 C 
ATOM     49  C   UNL A   1     -13.854  -6.508   1.234  0.00  0.00    -0.024 C 
ENDBRANCH  33  35
ENDBRANCH  32  33
ENDBRANCH  31  32
ENDBRANCH  30  31
ENDBRANCH  29  30
ENDBRANCH  28  29
ENDBRANCH  27  28
ENDBRANCH  26  27
ENDBRANCH   1  26
TORSDOF 17
