MODEL 1
REMARK VINA RESULT:    -7.897      0.000      0.000
REMARK INTER + INTRA:         -17.674
REMARK INTER:                 -13.898
REMARK INTRA:                  -3.776
REMARK UNBOUND:                -3.776
REMARK  Name = cpd19.pdb
REMARK  15 active torsions:
REMARK  status: ('A' for Active; 'I' for Inactive)
REMARK    1  A    between atoms: C_1  and  C_2
REMARK    2  A    between atoms: C_6  and  N_7
REMARK    3  A    between atoms: N_7  and  C_8
REMARK    4  A    between atoms: C_13  and  C_14
REMARK    5  A    between atoms: N_16  and  C_17
REMARK    6  A    between atoms: C_17  and  C_18
REMARK    7  A    between atoms: C_18  and  C_19
REMARK    8  A    between atoms: C_19  and  C_20
REMARK    9  A    between atoms: C_20  and  C_21
REMARK   10  A    between atoms: C_21  and  C_22
REMARK   11  A    between atoms: C_22  and  C_23
REMARK   12  A    between atoms: C_23  and  C_24
REMARK   13  A    between atoms: C_24  and  N_25
REMARK   14  A    between atoms: N_25  and  C_26
REMARK   15  A    between atoms: C_41  and  C_42
REMARK                            x       y       z     vdW  Elec       q    Type
REMARK                         _______ _______ _______ _____ _____    ______ ____
ROOT
ATOM      1  C   UNL A   1      35.197 -39.794 -31.706  0.00  0.00    -0.052 C 
ENDROOT
BRANCH   1   2
ATOM      2  C   UNL A   1      34.225 -38.697 -31.273  0.00  0.00    -0.037 C 
BRANCH   2   3
ATOM      3  C   UNL A   1      33.591 -37.956 -32.452  0.00  0.00    +0.012 C 
BRANCH   3   6
ATOM      4  C   UNL A   1      32.782 -35.910 -31.337  0.00  0.00    +0.246 C 
ATOM      5  O   UNL A   1      31.822 -36.492 -30.845  0.00  0.00    -0.270 OA
ATOM      6  N   UNL A   1      33.647 -36.523 -32.231  0.00  0.00    -0.311 N 
ATOM      7  H   UNL A   1      34.307 -35.980 -32.720  0.00  0.00    +0.000 HD
BRANCH   4  13
ATOM      8  C   UNL A   1      34.179 -34.291 -29.989  0.00  0.00    +0.044 A 
ATOM      9  C   UNL A   1      34.580 -32.964 -29.757  0.00  0.00    -0.040 A 
ATOM     10  C   UNL A   1      33.893 -31.886 -30.319  0.00  0.00    -0.060 A 
ATOM     11  C   UNL A   1      32.793 -32.112 -31.137  0.00  0.00    -0.061 A 
ATOM     12  C   UNL A   1      32.410 -33.419 -31.436  0.00  0.00    -0.048 A 
ATOM     13  C   UNL A   1      33.121 -34.512 -30.908  0.00  0.00    +0.058 A 
BRANCH   8  14
ATOM     14  N   UNL A   1      34.870 -35.371 -29.379  0.00  0.00    -0.314 N 
ATOM     15  H   UNL A   1      34.394 -35.783 -28.622  0.00  0.00    +0.000 HD
BRANCH  14  21
ATOM     16  C   UNL A   1      38.590 -38.461 -28.079  0.00  0.00    -0.039 C 
ATOM     17  C   UNL A   1      37.946 -37.486 -29.027  0.00  0.00    -0.046 A 
ATOM     18  C   UNL A   1      38.633 -37.140 -30.199  0.00  0.00    -0.058 A 
ATOM     19  C   UNL A   1      38.095 -36.219 -31.089  0.00  0.00    -0.060 A 
ATOM     20  C   UNL A   1      36.861 -35.629 -30.820  0.00  0.00    -0.040 A 
ATOM     21  C   UNL A   1      36.129 -35.961 -29.671  0.00  0.00    +0.035 A 
ATOM     22  C   UNL A   1      36.669 -36.922 -28.774  0.00  0.00    -0.026 A 
ATOM     23  C   UNL A   1      35.915 -37.282 -27.515  0.00  0.00    -0.038 C 
ENDBRANCH  14  21
ENDBRANCH   8  14
ENDBRANCH   4  13
ENDBRANCH   3   6
ENDBRANCH   2   3
ENDBRANCH   1   2
BRANCH   1  24
ATOM     24  C   UNL A   1      36.037 -40.381 -30.566  0.00  0.00    -0.053 C 
BRANCH  24  25
ATOM     25  C   UNL A   1      35.212 -40.475 -29.280  0.00  0.00    -0.053 C 
BRANCH  25  26
ATOM     26  C   UNL A   1      35.343 -41.813 -28.547  0.00  0.00    -0.052 C 
BRANCH  26  27
ATOM     27  C   UNL A   1      34.476 -41.896 -27.286  0.00  0.00    -0.037 C 
BRANCH  27  28
ATOM     28  C   UNL A   1      33.752 -40.580 -26.988  0.00  0.00    +0.009 C 
BRANCH  28  29
ATOM     29  N   UNL A   1      33.084 -40.653 -25.680  0.00  0.00    -0.343 N 
ATOM     30  H   UNL A   1      32.644 -41.465 -25.339  0.00  0.00    +0.000 HD
BRANCH  29  31
ATOM     31  C   UNL A   1      33.140 -39.428 -24.958  0.00  0.00    +0.041 A 
ATOM     32  C   UNL A   1      33.475 -39.449 -23.589  0.00  0.00    -0.005 A 
ATOM     33  C   UNL A   1      33.493 -38.231 -22.907  0.00  0.00    +0.047 A 
ATOM     34  N   UNL A   1      33.164 -37.052 -23.485  0.00  0.00    -0.251 NA
ATOM     35  C   UNL A   1      32.828 -37.032 -24.780  0.00  0.00    +0.074 A 
ATOM     36  C   UNL A   1      32.509 -35.803 -25.336  0.00  0.00    -0.017 A 
ATOM     37  C   UNL A   1      32.142 -35.686 -26.673  0.00  0.00    +0.043 A 
ATOM     38 CL   UNL A   1      31.760 -34.142 -27.327  0.00  0.00    -0.083 Cl
ATOM     39  C   UNL A   1      32.082 -36.810 -27.481  0.00  0.00    -0.043 A 
ATOM     40  C   UNL A   1      32.399 -38.056 -26.939  0.00  0.00    -0.049 A 
ATOM     41  C   UNL A   1      32.785 -38.193 -25.580  0.00  0.00    +0.022 A 
ATOM     42  C   UNL A   1      33.833 -38.148 -21.441  0.00  0.00    -0.010 C 
ATOM     43  C   UNL A   1      34.640 -39.340 -20.941  0.00  0.00    -0.047 C 
ATOM     44  C   UNL A   1      33.975 -40.633 -21.385  0.00  0.00    -0.049 C 
ATOM     45  C   UNL A   1      33.936 -40.719 -22.910  0.00  0.00    -0.024 C 
ENDBRANCH  29  31
ENDBRANCH  28  29
ENDBRANCH  27  28
ENDBRANCH  26  27
ENDBRANCH  25  26
ENDBRANCH  24  25
ENDBRANCH   1  24
TORSDOF 13
ENDMDL
MODEL 2
REMARK VINA RESULT:    -7.749      1.658      3.256
REMARK INTER + INTRA:         -17.414
REMARK INTER:                 -13.432
REMARK INTRA:                  -3.982
REMARK UNBOUND:                -3.776
REMARK  Name = cpd19.pdb
REMARK  15 active torsions:
REMARK  status: ('A' for Active; 'I' for Inactive)
REMARK    1  A    between atoms: C_1  and  C_2
REMARK    2  A    between atoms: C_6  and  N_7
REMARK    3  A    between atoms: N_7  and  C_8
REMARK    4  A    between atoms: C_13  and  C_14
REMARK    5  A    between atoms: N_16  and  C_17
REMARK    6  A    between atoms: C_17  and  C_18
REMARK    7  A    between atoms: C_18  and  C_19
REMARK    8  A    between atoms: C_19  and  C_20
REMARK    9  A    between atoms: C_20  and  C_21
REMARK   10  A    between atoms: C_21  and  C_22
REMARK   11  A    between atoms: C_22  and  C_23
REMARK   12  A    between atoms: C_23  and  C_24
REMARK   13  A    between atoms: C_24  and  N_25
REMARK   14  A    between atoms: N_25  and  C_26
REMARK   15  A    between atoms: C_41  and  C_42
REMARK                            x       y       z     vdW  Elec       q    Type
REMARK                         _______ _______ _______ _____ _____    ______ ____
ROOT
ATOM      1  C   UNL A   1      35.243 -39.830 -31.728  0.00  0.00    -0.052 C 
ENDROOT
BRANCH   1   2
ATOM      2  C   UNL A   1      34.290 -38.787 -31.146  0.00  0.00    -0.037 C 
BRANCH   2   3
ATOM      3  C   UNL A   1      33.476 -38.053 -32.214  0.00  0.00    +0.012 C 
BRANCH   3   6
ATOM      4  C   UNL A   1      32.755 -35.932 -31.185  0.00  0.00    +0.246 C 
ATOM      5  O   UNL A   1      31.759 -36.447 -30.690  0.00  0.00    -0.270 OA
ATOM      6  N   UNL A   1      33.601 -36.618 -32.041  0.00  0.00    -0.311 N 
ATOM      7  H   UNL A   1      34.295 -36.126 -32.537  0.00  0.00    +0.000 HD
BRANCH   4  13
ATOM      8  C   UNL A   1      34.264 -34.335 -29.934  0.00  0.00    +0.044 A 
ATOM      9  C   UNL A   1      34.717 -33.019 -29.745  0.00  0.00    -0.040 A 
ATOM     10  C   UNL A   1      34.037 -31.929 -30.293  0.00  0.00    -0.060 A 
ATOM     11  C   UNL A   1      32.894 -32.133 -31.055  0.00  0.00    -0.061 A 
ATOM     12  C   UNL A   1      32.456 -33.432 -31.312  0.00  0.00    -0.048 A 
ATOM     13  C   UNL A   1      33.157 -34.539 -30.798  0.00  0.00    +0.058 A 
BRANCH   8  14
ATOM     14  N   UNL A   1      34.949 -35.427 -29.338  0.00  0.00    -0.314 N 
ATOM     15  H   UNL A   1      34.470 -35.848 -28.588  0.00  0.00    +0.000 HD
BRANCH  14  21
ATOM     16  C   UNL A   1      38.648 -38.559 -28.079  0.00  0.00    -0.039 C 
ATOM     17  C   UNL A   1      38.012 -37.564 -29.012  0.00  0.00    -0.046 A 
ATOM     18  C   UNL A   1      38.707 -37.201 -30.174  0.00  0.00    -0.058 A 
ATOM     19  C   UNL A   1      38.177 -36.261 -31.050  0.00  0.00    -0.060 A 
ATOM     20  C   UNL A   1      36.945 -35.669 -30.775  0.00  0.00    -0.040 A 
ATOM     21  C   UNL A   1      36.207 -36.019 -29.635  0.00  0.00    +0.035 A 
ATOM     22  C   UNL A   1      36.738 -36.998 -28.753  0.00  0.00    -0.026 A 
ATOM     23  C   UNL A   1      35.977 -37.377 -27.504  0.00  0.00    -0.038 C 
ENDBRANCH  14  21
ENDBRANCH   8  14
ENDBRANCH   4  13
ENDBRANCH   3   6
ENDBRANCH   2   3
ENDBRANCH   1   2
BRANCH   1  24
ATOM     24  C   UNL A   1      36.236 -40.413 -30.716  0.00  0.00    -0.053 C 
BRANCH  24  25
ATOM     25  C   UNL A   1      35.597 -40.514 -29.329  0.00  0.00    -0.053 C 
BRANCH  25  26
ATOM     26  C   UNL A   1      35.155 -41.928 -28.943  0.00  0.00    -0.052 C 
BRANCH  26  27
ATOM     27  C   UNL A   1      34.126 -41.949 -27.808  0.00  0.00    -0.037 C 
BRANCH  27  28
ATOM     28  C   UNL A   1      34.181 -40.683 -26.947  0.00  0.00    +0.009 C 
BRANCH  28  29
ATOM     29  N   UNL A   1      32.966 -40.574 -26.126  0.00  0.00    -0.343 N 
ATOM     30  H   UNL A   1      32.180 -41.156 -26.239  0.00  0.00    +0.000 HD
BRANCH  29  31
ATOM     31  C   UNL A   1      33.045 -39.541 -25.151  0.00  0.00    +0.041 A 
ATOM     32  C   UNL A   1      32.760 -38.213 -25.530  0.00  0.00    -0.005 A 
ATOM     33  C   UNL A   1      32.875 -37.222 -24.554  0.00  0.00    +0.047 A 
ATOM     34  N   UNL A   1      33.282 -37.471 -23.288  0.00  0.00    -0.251 NA
ATOM     35  C   UNL A   1      33.571 -38.728 -22.931  0.00  0.00    +0.074 A 
ATOM     36  C   UNL A   1      33.974 -38.942 -21.622  0.00  0.00    -0.017 A 
ATOM     37  C   UNL A   1      34.300 -40.215 -21.163  0.00  0.00    +0.043 A 
ATOM     38 CL   UNL A   1      34.790 -40.439 -19.529  0.00  0.00    -0.083 Cl
ATOM     39  C   UNL A   1      34.231 -41.303 -22.017  0.00  0.00    -0.043 A 
ATOM     40  C   UNL A   1      33.827 -41.107 -23.338  0.00  0.00    -0.049 A 
ATOM     41  C   UNL A   1      33.482 -39.818 -23.821  0.00  0.00    +0.022 A 
ATOM     42  C   UNL A   1      32.598 -35.772 -24.860  0.00  0.00    -0.010 C 
ATOM     43  C   UNL A   1      31.710 -35.573 -26.081  0.00  0.00    -0.047 C 
ATOM     44  C   UNL A   1      32.242 -36.396 -27.243  0.00  0.00    -0.049 C 
ATOM     45  C   UNL A   1      32.216 -37.885 -26.902  0.00  0.00    -0.024 C 
ENDBRANCH  29  31
ENDBRANCH  28  29
ENDBRANCH  27  28
ENDBRANCH  26  27
ENDBRANCH  25  26
ENDBRANCH  24  25
ENDBRANCH   1  24
TORSDOF 13
ENDMDL
MODEL 3
REMARK VINA RESULT:    -7.587     18.407     22.191
REMARK INTER + INTRA:         -17.130
REMARK INTER:                 -12.758
REMARK INTRA:                  -4.372
REMARK UNBOUND:                -3.776
REMARK  Name = cpd19.pdb
REMARK  15 active torsions:
REMARK  status: ('A' for Active; 'I' for Inactive)
REMARK    1  A    between atoms: C_1  and  C_2
REMARK    2  A    between atoms: C_6  and  N_7
REMARK    3  A    between atoms: N_7  and  C_8
REMARK    4  A    between atoms: C_13  and  C_14
REMARK    5  A    between atoms: N_16  and  C_17
REMARK    6  A    between atoms: C_17  and  C_18
REMARK    7  A    between atoms: C_18  and  C_19
REMARK    8  A    between atoms: C_19  and  C_20
REMARK    9  A    between atoms: C_20  and  C_21
REMARK   10  A    between atoms: C_21  and  C_22
REMARK   11  A    between atoms: C_22  and  C_23
REMARK   12  A    between atoms: C_23  and  C_24
REMARK   13  A    between atoms: C_24  and  N_25
REMARK   14  A    between atoms: N_25  and  C_26
REMARK   15  A    between atoms: C_41  and  C_42
REMARK                            x       y       z     vdW  Elec       q    Type
REMARK                         _______ _______ _______ _____ _____    ______ ____
ROOT
ATOM      1  C   UNL A   1      42.734 -17.492 -37.004  0.00  0.00    -0.052 C 
ENDROOT
BRANCH   1   2
ATOM      2  C   UNL A   1      42.198 -17.809 -38.400  0.00  0.00    -0.037 C 
BRANCH   2   3
ATOM      3  C   UNL A   1      43.196 -17.487 -39.515  0.00  0.00    +0.012 C 
BRANCH   3   6
ATOM      4  C   UNL A   1      44.586 -18.676 -41.168  0.00  0.00    +0.246 C 
ATOM      5  O   UNL A   1      44.985 -17.630 -41.666  0.00  0.00    -0.270 OA
ATOM      6  N   UNL A   1      43.620 -18.708 -40.175  0.00  0.00    -0.311 N 
ATOM      7  H   UNL A   1      43.217 -19.568 -39.915  0.00  0.00    +0.000 HD
BRANCH   4  13
ATOM      8  C   UNL A   1      46.380 -20.436 -40.885  0.00  0.00    +0.044 A 
ATOM      9  C   UNL A   1      46.825 -21.742 -41.149  0.00  0.00    -0.040 A 
ATOM     10  C   UNL A   1      46.212 -22.538 -42.120  0.00  0.00    -0.060 A 
ATOM     11  C   UNL A   1      45.131 -22.048 -42.841  0.00  0.00    -0.061 A 
ATOM     12  C   UNL A   1      44.628 -20.779 -42.558  0.00  0.00    -0.048 A 
ATOM     13  C   UNL A   1      45.212 -19.985 -41.554  0.00  0.00    +0.058 A 
BRANCH   8  14
ATOM     14  N   UNL A   1      47.039 -19.630 -39.920  0.00  0.00    -0.314 N 
ATOM     15  H   UNL A   1      47.815 -19.132 -40.266  0.00  0.00    +0.000 HD
BRANCH  14  21
ATOM     16  C   UNL A   1      46.613 -16.484 -36.047  0.00  0.00    -0.039 C 
ATOM     17  C   UNL A   1      46.559 -17.862 -36.648  0.00  0.00    -0.046 A 
ATOM     18  C   UNL A   1      46.276 -18.947 -35.807  0.00  0.00    -0.058 A 
ATOM     19  C   UNL A   1      46.248 -20.243 -36.309  0.00  0.00    -0.060 A 
ATOM     20  C   UNL A   1      46.506 -20.473 -37.659  0.00  0.00    -0.040 A 
ATOM     21  C   UNL A   1      46.774 -19.416 -38.540  0.00  0.00    +0.035 A 
ATOM     22  C   UNL A   1      46.777 -18.089 -38.031  0.00  0.00    -0.026 A 
ATOM     23  C   UNL A   1      47.087 -16.931 -38.952  0.00  0.00    -0.038 C 
ENDBRANCH  14  21
ENDBRANCH   8  14
ENDBRANCH   4  13
ENDBRANCH   3   6
ENDBRANCH   2   3
ENDBRANCH   1   2
BRANCH   1  24
ATOM     24  C   UNL A   1      42.677 -18.667 -36.022  0.00  0.00    -0.053 C 
BRANCH  24  25
ATOM     25  C   UNL A   1      41.918 -18.274 -34.752  0.00  0.00    -0.053 C 
BRANCH  25  26
ATOM     26  C   UNL A   1      42.332 -19.061 -33.506  0.00  0.00    -0.052 C 
BRANCH  26  27
ATOM     27  C   UNL A   1      42.708 -20.515 -33.809  0.00  0.00    -0.037 C 
BRANCH  27  28
ATOM     28  C   UNL A   1      41.833 -21.515 -33.050  0.00  0.00    +0.009 C 
BRANCH  28  29
ATOM     29  N   UNL A   1      41.139 -22.403 -33.995  0.00  0.00    -0.343 N 
ATOM     30  H   UNL A   1      41.257 -23.380 -34.009  0.00  0.00    +0.000 HD
BRANCH  29  31
ATOM     31  C   UNL A   1      40.280 -21.703 -34.887  0.00  0.00    +0.041 A 
ATOM     32  C   UNL A   1      39.081 -21.147 -34.395  0.00  0.00    -0.005 A 
ATOM     33  C   UNL A   1      38.250 -20.491 -35.304  0.00  0.00    +0.047 A 
ATOM     34  N   UNL A   1      38.521 -20.404 -36.628  0.00  0.00    -0.251 NA
ATOM     35  C   UNL A   1      39.648 -20.947 -37.100  0.00  0.00    +0.074 A 
ATOM     36  C   UNL A   1      39.893 -20.826 -38.459  0.00  0.00    -0.017 A 
ATOM     37  C   UNL A   1      41.038 -21.365 -39.040  0.00  0.00    +0.043 A 
ATOM     38 CL   UNL A   1      41.308 -21.188 -40.729  0.00  0.00    -0.083 Cl
ATOM     39  C   UNL A   1      41.961 -22.044 -38.262  0.00  0.00    -0.043 A 
ATOM     40  C   UNL A   1      41.732 -22.175 -36.892  0.00  0.00    -0.049 A 
ATOM     41  C   UNL A   1      40.576 -21.625 -36.281  0.00  0.00    +0.022 A 
ATOM     42  C   UNL A   1      36.945 -19.868 -34.880  0.00  0.00    -0.010 C 
ATOM     43  C   UNL A   1      36.886 -19.550 -33.391  0.00  0.00    -0.047 C 
ATOM     44  C   UNL A   1      37.321 -20.766 -32.588  0.00  0.00    -0.049 C 
ATOM     45  C   UNL A   1      38.767 -21.134 -32.916  0.00  0.00    -0.024 C 
ENDBRANCH  29  31
ENDBRANCH  28  29
ENDBRANCH  27  28
ENDBRANCH  26  27
ENDBRANCH  25  26
ENDBRANCH  24  25
ENDBRANCH   1  24
TORSDOF 13
ENDMDL
MODEL 4
REMARK VINA RESULT:    -7.366     18.065     23.421
REMARK INTER + INTRA:         -16.740
REMARK INTER:                 -12.460
REMARK INTRA:                  -4.280
REMARK UNBOUND:                -3.776
REMARK  Name = cpd19.pdb
REMARK  15 active torsions:
REMARK  status: ('A' for Active; 'I' for Inactive)
REMARK    1  A    between atoms: C_1  and  C_2
REMARK    2  A    between atoms: C_6  and  N_7
REMARK    3  A    between atoms: N_7  and  C_8
REMARK    4  A    between atoms: C_13  and  C_14
REMARK    5  A    between atoms: N_16  and  C_17
REMARK    6  A    between atoms: C_17  and  C_18
REMARK    7  A    between atoms: C_18  and  C_19
REMARK    8  A    between atoms: C_19  and  C_20
REMARK    9  A    between atoms: C_20  and  C_21
REMARK   10  A    between atoms: C_21  and  C_22
REMARK   11  A    between atoms: C_22  and  C_23
REMARK   12  A    between atoms: C_23  and  C_24
REMARK   13  A    between atoms: C_24  and  N_25
REMARK   14  A    between atoms: N_25  and  C_26
REMARK   15  A    between atoms: C_41  and  C_42
REMARK                            x       y       z     vdW  Elec       q    Type
REMARK                         _______ _______ _______ _____ _____    ______ ____
ROOT
ATOM      1  C   UNL A   1      41.923 -20.274 -38.841  0.00  0.00    -0.052 C 
ENDROOT
BRANCH   1   2
ATOM      2  C   UNL A   1      40.485 -20.597 -39.244  0.00  0.00    -0.037 C 
BRANCH   2   3
ATOM      3  C   UNL A   1      40.091 -22.048 -38.959  0.00  0.00    +0.012 C 
BRANCH   3   6
ATOM      4  C   UNL A   1      40.224 -22.623 -36.565  0.00  0.00    +0.246 C 
ATOM      5  O   UNL A   1      41.327 -23.141 -36.695  0.00  0.00    -0.270 OA
ATOM      6  N   UNL A   1      39.490 -22.154 -37.643  0.00  0.00    -0.311 N 
ATOM      7  H   UNL A   1      38.550 -21.891 -37.514  0.00  0.00    +0.000 HD
BRANCH   4  13
ATOM      8  C   UNL A   1      40.205 -21.367 -34.371  0.00  0.00    +0.044 A 
ATOM      9  C   UNL A   1      39.531 -21.056 -33.178  0.00  0.00    -0.040 A 
ATOM     10  C   UNL A   1      38.423 -21.792 -32.754  0.00  0.00    -0.060 A 
ATOM     11  C   UNL A   1      37.956 -22.852 -33.521  0.00  0.00    -0.061 A 
ATOM     12  C   UNL A   1      38.566 -23.145 -34.740  0.00  0.00    -0.048 A 
ATOM     13  C   UNL A   1      39.657 -22.383 -35.197  0.00  0.00    +0.058 A 
BRANCH   8  14
ATOM     14  N   UNL A   1      41.351 -20.629 -34.767  0.00  0.00    -0.314 N 
ATOM     15  H   UNL A   1      42.156 -21.176 -34.917  0.00  0.00    +0.000 HD
BRANCH  14  21
ATOM     16  C   UNL A   1      44.404 -16.662 -34.922  0.00  0.00    -0.039 C 
ATOM     17  C   UNL A   1      43.048 -17.298 -35.065  0.00  0.00    -0.046 A 
ATOM     18  C   UNL A   1      41.956 -16.479 -35.385  0.00  0.00    -0.058 A 
ATOM     19  C   UNL A   1      40.678 -17.015 -35.494  0.00  0.00    -0.060 A 
ATOM     20  C   UNL A   1      40.474 -18.377 -35.284  0.00  0.00    -0.040 A 
ATOM     21  C   UNL A   1      41.540 -19.237 -34.984  0.00  0.00    +0.035 A 
ATOM     22  C   UNL A   1      42.849 -18.692 -34.896  0.00  0.00    -0.026 A 
ATOM     23  C   UNL A   1      44.015 -19.590 -34.549  0.00  0.00    -0.038 C 
ENDBRANCH  14  21
ENDBRANCH   8  14
ENDBRANCH   4  13
ENDBRANCH   3   6
ENDBRANCH   2   3
ENDBRANCH   1   2
BRANCH   1  24
ATOM     24  C   UNL A   1      42.501 -19.021 -39.510  0.00  0.00    -0.053 C 
BRANCH  24  25
ATOM     25  C   UNL A   1      42.161 -17.769 -38.697  0.00  0.00    -0.053 C 
BRANCH  25  26
ATOM     26  C   UNL A   1      42.380 -16.454 -39.450  0.00  0.00    -0.052 C 
BRANCH  26  27
ATOM     27  C   UNL A   1      43.329 -16.596 -40.645  0.00  0.00    -0.037 C 
BRANCH  27  28
ATOM     28  C   UNL A   1      44.735 -16.072 -40.340  0.00  0.00    +0.009 C 
BRANCH  28  29
ATOM     29  N   UNL A   1      45.746 -16.927 -40.979  0.00  0.00    -0.343 N 
ATOM     30  H   UNL A   1      46.215 -16.685 -41.810  0.00  0.00    +0.000 HD
BRANCH  29  31
ATOM     31  C   UNL A   1      45.975 -18.140 -40.272  0.00  0.00    +0.041 A 
ATOM     32  C   UNL A   1      45.609 -19.364 -40.868  0.00  0.00    -0.005 A 
ATOM     33  C   UNL A   1      45.823 -20.532 -40.134  0.00  0.00    +0.047 A 
ATOM     34  N   UNL A   1      46.321 -20.537 -38.876  0.00  0.00    -0.251 NA
ATOM     35  C   UNL A   1      46.653 -19.375 -38.301  0.00  0.00    +0.074 A 
ATOM     36  C   UNL A   1      47.169 -19.424 -37.016  0.00  0.00    -0.017 A 
ATOM     37  C   UNL A   1      47.536 -18.266 -36.337  0.00  0.00    +0.043 A 
ATOM     38 CL   UNL A   1      48.179 -18.370 -34.745  0.00  0.00    -0.083 Cl
ATOM     39  C   UNL A   1      47.385 -17.027 -36.940  0.00  0.00    -0.043 A 
ATOM     40  C   UNL A   1      46.866 -16.958 -38.233  0.00  0.00    -0.049 A 
ATOM     41  C   UNL A   1      46.496 -18.129 -38.943  0.00  0.00    +0.022 A 
ATOM     42  C   UNL A   1      45.460 -21.889 -40.680  0.00  0.00    -0.010 C 
ATOM     43  C   UNL A   1      45.369 -21.923 -42.200  0.00  0.00    -0.047 C 
ATOM     44  C   UNL A   1      44.506 -20.771 -42.689  0.00  0.00    -0.049 C 
ATOM     45  C   UNL A   1      45.131 -19.432 -42.301  0.00  0.00    -0.024 C 
ENDBRANCH  29  31
ENDBRANCH  28  29
ENDBRANCH  27  28
ENDBRANCH  26  27
ENDBRANCH  25  26
ENDBRANCH  24  25
ENDBRANCH   1  24
TORSDOF 13
ENDMDL
MODEL 5
REMARK VINA RESULT:    -7.299     18.520     23.714
REMARK INTER + INTRA:         -16.622
REMARK INTER:                 -12.009
REMARK INTRA:                  -4.613
REMARK UNBOUND:                -3.776
REMARK  Name = cpd19.pdb
REMARK  15 active torsions:
REMARK  status: ('A' for Active; 'I' for Inactive)
REMARK    1  A    between atoms: C_1  and  C_2
REMARK    2  A    between atoms: C_6  and  N_7
REMARK    3  A    between atoms: N_7  and  C_8
REMARK    4  A    between atoms: C_13  and  C_14
REMARK    5  A    between atoms: N_16  and  C_17
REMARK    6  A    between atoms: C_17  and  C_18
REMARK    7  A    between atoms: C_18  and  C_19
REMARK    8  A    between atoms: C_19  and  C_20
REMARK    9  A    between atoms: C_20  and  C_21
REMARK   10  A    between atoms: C_21  and  C_22
REMARK   11  A    between atoms: C_22  and  C_23
REMARK   12  A    between atoms: C_23  and  C_24
REMARK   13  A    between atoms: C_24  and  N_25
REMARK   14  A    between atoms: N_25  and  C_26
REMARK   15  A    between atoms: C_41  and  C_42
REMARK                            x       y       z     vdW  Elec       q    Type
REMARK                         _______ _______ _______ _____ _____    ______ ____
ROOT
ATOM      1  C   UNL A   1      42.714 -20.153 -39.079  0.00  0.00    -0.052 C 
ENDROOT
BRANCH   1   2
ATOM      2  C   UNL A   1      41.821 -21.085 -39.896  0.00  0.00    -0.037 C 
BRANCH   2   3
ATOM      3  C   UNL A   1      40.423 -21.257 -39.297  0.00  0.00    +0.012 C 
BRANCH   3   6
ATOM      4  C   UNL A   1      39.959 -20.628 -36.958  0.00  0.00    +0.246 C 
ATOM      5  O   UNL A   1      39.538 -19.523 -37.282  0.00  0.00    -0.270 OA
ATOM      6  N   UNL A   1      40.518 -21.509 -37.871  0.00  0.00    -0.311 N 
ATOM      7  H   UNL A   1      40.984 -22.314 -37.548  0.00  0.00    +0.000 HD
BRANCH   4  13
ATOM      8  C   UNL A   1      40.156 -20.279 -34.462  0.00  0.00    +0.044 A 
ATOM      9  C   UNL A   1      39.817 -20.703 -33.166  0.00  0.00    -0.040 A 
ATOM     10  C   UNL A   1      39.248 -21.957 -32.935  0.00  0.00    -0.060 A 
ATOM     11  C   UNL A   1      38.993 -22.812 -33.999  0.00  0.00    -0.061 A 
ATOM     12  C   UNL A   1      39.260 -22.395 -35.302  0.00  0.00    -0.048 A 
ATOM     13  C   UNL A   1      39.795 -21.117 -35.549  0.00  0.00    +0.058 A 
BRANCH   8  14
ATOM     14  N   UNL A   1      40.767 -19.015 -34.672  0.00  0.00    -0.314 N 
ATOM     15  H   UNL A   1      40.201 -18.362 -35.145  0.00  0.00    +0.000 HD
BRANCH  14  21
ATOM     16  C   UNL A   1      44.795 -16.262 -35.799  0.00  0.00    -0.039 C 
ATOM     17  C   UNL A   1      44.023 -17.167 -34.877  0.00  0.00    -0.046 A 
ATOM     18  C   UNL A   1      44.616 -17.552 -33.667  0.00  0.00    -0.058 A 
ATOM     19  C   UNL A   1      43.957 -18.414 -32.799  0.00  0.00    -0.060 A 
ATOM     20  C   UNL A   1      42.694 -18.903 -33.129  0.00  0.00    -0.040 A 
ATOM     21  C   UNL A   1      42.054 -18.527 -34.318  0.00  0.00    +0.035 A 
ATOM     22  C   UNL A   1      42.719 -17.627 -35.194  0.00  0.00    -0.026 A 
ATOM     23  C   UNL A   1      42.065 -17.222 -36.495  0.00  0.00    -0.038 C 
ENDBRANCH  14  21
ENDBRANCH   8  14
ENDBRANCH   4  13
ENDBRANCH   3   6
ENDBRANCH   2   3
ENDBRANCH   1   2
BRANCH   1  24
ATOM     24  C   UNL A   1      43.894 -20.850 -38.392  0.00  0.00    -0.053 C 
BRANCH  24  25
ATOM     25  C   UNL A   1      43.906 -20.541 -36.893  0.00  0.00    -0.053 C 
BRANCH  25  26
ATOM     26  C   UNL A   1      45.274 -20.120 -36.350  0.00  0.00    -0.052 C 
BRANCH  26  27
ATOM     27  C   UNL A   1      46.377 -20.143 -37.414  0.00  0.00    -0.037 C 
BRANCH  27  28
ATOM     28  C   UNL A   1      46.827 -18.736 -37.819  0.00  0.00    +0.009 C 
BRANCH  28  29
ATOM     29  N   UNL A   1      47.312 -18.738 -39.207  0.00  0.00    -0.343 N 
ATOM     30  H   UNL A   1      48.265 -18.777 -39.450  0.00  0.00    +0.000 HD
BRANCH  29  31
ATOM     31  C   UNL A   1      46.260 -18.675 -40.163  0.00  0.00    +0.041 A 
ATOM     32  C   UNL A   1      46.081 -19.747 -41.061  0.00  0.00    -0.005 A 
ATOM     33  C   UNL A   1      45.056 -19.638 -42.003  0.00  0.00    +0.047 A 
ATOM     34  N   UNL A   1      44.266 -18.545 -42.117  0.00  0.00    -0.251 NA
ATOM     35  C   UNL A   1      44.446 -17.519 -41.278  0.00  0.00    +0.074 A 
ATOM     36  C   UNL A   1      43.609 -16.423 -41.422  0.00  0.00    -0.017 A 
ATOM     37  C   UNL A   1      43.727 -15.308 -40.598  0.00  0.00    +0.043 A 
ATOM     38 CL   UNL A   1      42.665 -13.972 -40.804  0.00  0.00    -0.083 Cl
ATOM     39  C   UNL A   1      44.699 -15.271 -39.610  0.00  0.00    -0.043 A 
ATOM     40  C   UNL A   1      45.550 -16.364 -39.451  0.00  0.00    -0.049 A 
ATOM     41  C   UNL A   1      45.439 -17.513 -40.276  0.00  0.00    +0.022 A 
ATOM     42  C   UNL A   1      44.787 -20.726 -43.010  0.00  0.00    -0.010 C 
ATOM     43  C   UNL A   1      45.320 -22.088 -42.584  0.00  0.00    -0.047 C 
ATOM     44  C   UNL A   1      46.767 -21.956 -42.136  0.00  0.00    -0.049 C 
ATOM     45  C   UNL A   1      46.872 -21.028 -40.927  0.00  0.00    -0.024 C 
ENDBRANCH  29  31
ENDBRANCH  28  29
ENDBRANCH  27  28
ENDBRANCH  26  27
ENDBRANCH  25  26
ENDBRANCH  24  25
ENDBRANCH   1  24
TORSDOF 13
ENDMDL
MODEL 6
REMARK VINA RESULT:    -7.242     17.681     22.170
REMARK INTER + INTRA:         -16.523
REMARK INTER:                 -12.946
REMARK INTRA:                  -3.577
REMARK UNBOUND:                -3.776
REMARK  Name = cpd19.pdb
REMARK  15 active torsions:
REMARK  status: ('A' for Active; 'I' for Inactive)
REMARK    1  A    between atoms: C_1  and  C_2
REMARK    2  A    between atoms: C_6  and  N_7
REMARK    3  A    between atoms: N_7  and  C_8
REMARK    4  A    between atoms: C_13  and  C_14
REMARK    5  A    between atoms: N_16  and  C_17
REMARK    6  A    between atoms: C_17  and  C_18
REMARK    7  A    between atoms: C_18  and  C_19
REMARK    8  A    between atoms: C_19  and  C_20
REMARK    9  A    between atoms: C_20  and  C_21
REMARK   10  A    between atoms: C_21  and  C_22
REMARK   11  A    between atoms: C_22  and  C_23
REMARK   12  A    between atoms: C_23  and  C_24
REMARK   13  A    between atoms: C_24  and  N_25
REMARK   14  A    between atoms: N_25  and  C_26
REMARK   15  A    between atoms: C_41  and  C_42
REMARK                            x       y       z     vdW  Elec       q    Type
REMARK                         _______ _______ _______ _____ _____    ______ ____
ROOT
ATOM      1  C   UNL A   1      42.350 -18.639 -33.413  0.00  0.00    -0.052 C 
ENDROOT
BRANCH   1   2
ATOM      2  C   UNL A   1      43.445 -17.958 -34.233  0.00  0.00    -0.037 C 
BRANCH   2   3
ATOM      3  C   UNL A   1      44.050 -18.869 -35.304  0.00  0.00    +0.012 C 
BRANCH   3   6
ATOM      4  C   UNL A   1      46.023 -18.558 -36.750  0.00  0.00    +0.246 C 
ATOM      5  O   UNL A   1      46.586 -19.542 -36.286  0.00  0.00    -0.270 OA
ATOM      6  N   UNL A   1      44.818 -18.085 -36.252  0.00  0.00    -0.311 N 
ATOM      7  H   UNL A   1      44.481 -17.208 -36.546  0.00  0.00    +0.000 HD
BRANCH   4  13
ATOM      8  C   UNL A   1      46.561 -18.525 -39.220  0.00  0.00    +0.044 A 
ATOM      9  C   UNL A   1      46.921 -17.779 -40.355  0.00  0.00    -0.040 A 
ATOM     10  C   UNL A   1      47.391 -16.469 -40.247  0.00  0.00    -0.060 A 
ATOM     11  C   UNL A   1      47.501 -15.870 -38.998  0.00  0.00    -0.061 A 
ATOM     12  C   UNL A   1      47.092 -16.563 -37.859  0.00  0.00    -0.048 A 
ATOM     13  C   UNL A   1      46.578 -17.869 -37.962  0.00  0.00    +0.058 A 
BRANCH   8  14
ATOM     14  N   UNL A   1      46.119 -19.869 -39.348  0.00  0.00    -0.314 N 
ATOM     15  H   UNL A   1      46.013 -20.346 -38.493  0.00  0.00    +0.000 HD
BRANCH  14  21
ATOM     16  C   UNL A   1      47.184 -23.706 -42.384  0.00  0.00    -0.039 C 
ATOM     17  C   UNL A   1      46.331 -22.535 -41.975  0.00  0.00    -0.046 A 
ATOM     18  C   UNL A   1      45.230 -22.199 -42.775  0.00  0.00    -0.058 A 
ATOM     19  C   UNL A   1      44.433 -21.106 -42.458  0.00  0.00    -0.060 A 
ATOM     20  C   UNL A   1      44.726 -20.332 -41.336  0.00  0.00    -0.040 A 
ATOM     21  C   UNL A   1      45.804 -20.645 -40.496  0.00  0.00    +0.035 A 
ATOM     22  C   UNL A   1      46.604 -21.778 -40.808  0.00  0.00    -0.026 A 
ATOM     23  C   UNL A   1      47.788 -22.125 -39.936  0.00  0.00    -0.038 C 
ENDBRANCH  14  21
ENDBRANCH   8  14
ENDBRANCH   4  13
ENDBRANCH   3   6
ENDBRANCH   2   3
ENDBRANCH   1   2
BRANCH   1  24
ATOM     24  C   UNL A   1      42.297 -20.163 -33.571  0.00  0.00    -0.053 C 
BRANCH  24  25
ATOM     25  C   UNL A   1      41.281 -20.771 -32.601  0.00  0.00    -0.053 C 
BRANCH  25  26
ATOM     26  C   UNL A   1      41.306 -22.301 -32.544  0.00  0.00    -0.052 C 
BRANCH  26  27
ATOM     27  C   UNL A   1      40.060 -22.946 -33.159  0.00  0.00    -0.037 C 
BRANCH  27  28
ATOM     28  C   UNL A   1      40.136 -23.026 -34.686  0.00  0.00    +0.009 C 
BRANCH  28  29
ATOM     29  N   UNL A   1      38.973 -22.357 -35.288  0.00  0.00    -0.343 N 
ATOM     30  H   UNL A   1      38.180 -22.839 -35.618  0.00  0.00    +0.000 HD
BRANCH  29  31
ATOM     31  C   UNL A   1      39.113 -20.943 -35.346  0.00  0.00    +0.041 A 
ATOM     32  C   UNL A   1      38.304 -20.136 -34.520  0.00  0.00    -0.005 A 
ATOM     33  C   UNL A   1      38.450 -18.751 -34.623  0.00  0.00    +0.047 A 
ATOM     34  N   UNL A   1      39.292 -18.158 -35.501  0.00  0.00    -0.251 NA
ATOM     35  C   UNL A   1      40.048 -18.921 -36.298  0.00  0.00    +0.074 A 
ATOM     36  C   UNL A   1      40.905 -18.273 -37.175  0.00  0.00    -0.017 A 
ATOM     37  C   UNL A   1      41.724 -18.985 -38.046  0.00  0.00    +0.043 A 
ATOM     38 CL   UNL A   1      42.779 -18.145 -39.113  0.00  0.00    -0.083 Cl
ATOM     39  C   UNL A   1      41.694 -20.370 -38.057  0.00  0.00    -0.043 A 
ATOM     40  C   UNL A   1      40.837 -21.040 -37.182  0.00  0.00    -0.049 A 
ATOM     41  C   UNL A   1      40.002 -20.331 -36.280  0.00  0.00    +0.022 A 
ATOM     42  C   UNL A   1      37.628 -17.803 -33.789  0.00  0.00    -0.010 C 
ATOM     43  C   UNL A   1      37.072 -18.442 -32.523  0.00  0.00    -0.047 C 
ATOM     44  C   UNL A   1      36.399 -19.761 -32.866  0.00  0.00    -0.049 C 
ATOM     45  C   UNL A   1      37.410 -20.740 -33.460  0.00  0.00    -0.024 C 
ENDBRANCH  29  31
ENDBRANCH  28  29
ENDBRANCH  27  28
ENDBRANCH  26  27
ENDBRANCH  25  26
ENDBRANCH  24  25
ENDBRANCH   1  24
TORSDOF 13
ENDMDL
MODEL 7
REMARK VINA RESULT:    -7.204     19.328     23.037
REMARK INTER + INTRA:         -16.454
REMARK INTER:                 -11.553
REMARK INTRA:                  -4.901
REMARK UNBOUND:                -3.776
REMARK  Name = cpd19.pdb
REMARK  15 active torsions:
REMARK  status: ('A' for Active; 'I' for Inactive)
REMARK    1  A    between atoms: C_1  and  C_2
REMARK    2  A    between atoms: C_6  and  N_7
REMARK    3  A    between atoms: N_7  and  C_8
REMARK    4  A    between atoms: C_13  and  C_14
REMARK    5  A    between atoms: N_16  and  C_17
REMARK    6  A    between atoms: C_17  and  C_18
REMARK    7  A    between atoms: C_18  and  C_19
REMARK    8  A    between atoms: C_19  and  C_20
REMARK    9  A    between atoms: C_20  and  C_21
REMARK   10  A    between atoms: C_21  and  C_22
REMARK   11  A    between atoms: C_22  and  C_23
REMARK   12  A    between atoms: C_23  and  C_24
REMARK   13  A    between atoms: C_24  and  N_25
REMARK   14  A    between atoms: N_25  and  C_26
REMARK   15  A    between atoms: C_41  and  C_42
REMARK                            x       y       z     vdW  Elec       q    Type
REMARK                         _______ _______ _______ _____ _____    ______ ____
ROOT
ATOM      1  C   UNL A   1      39.832 -17.959 -36.216  0.00  0.00    -0.052 C 
ENDROOT
BRANCH   1   2
ATOM      2  C   UNL A   1      41.127 -17.155 -36.124  0.00  0.00    -0.037 C 
BRANCH   2   3
ATOM      3  C   UNL A   1      41.463 -16.405 -37.415  0.00  0.00    +0.012 C 
BRANCH   3   6
ATOM      4  C   UNL A   1      43.366 -16.859 -38.915  0.00  0.00    +0.246 C 
ATOM      5  O   UNL A   1      42.642 -17.346 -39.776  0.00  0.00    -0.270 OA
ATOM      6  N   UNL A   1      42.889 -16.467 -37.674  0.00  0.00    -0.311 N 
ATOM      7  H   UNL A   1      43.525 -16.230 -36.961  0.00  0.00    +0.000 HD
BRANCH   4  13
ATOM      8  C   UNL A   1      45.723 -17.643 -39.385  0.00  0.00    +0.044 A 
ATOM      9  C   UNL A   1      47.016 -17.337 -39.840  0.00  0.00    -0.040 A 
ATOM     10  C   UNL A   1      47.434 -16.016 -40.013  0.00  0.00    -0.060 A 
ATOM     11  C   UNL A   1      46.561 -14.969 -39.743  0.00  0.00    -0.061 A 
ATOM     12  C   UNL A   1      45.252 -15.243 -39.350  0.00  0.00    -0.048 A 
ATOM     13  C   UNL A   1      44.809 -16.572 -39.213  0.00  0.00    +0.058 A 
BRANCH   8  14
ATOM     14  N   UNL A   1      45.329 -18.993 -39.182  0.00  0.00    -0.314 N 
ATOM     15  H   UNL A   1      44.606 -19.111 -38.524  0.00  0.00    +0.000 HD
BRANCH  14  21
ATOM     16  C   UNL A   1      45.242 -22.280 -42.958  0.00  0.00    -0.039 C 
ATOM     17  C   UNL A   1      45.753 -21.805 -41.625  0.00  0.00    -0.046 A 
ATOM     18  C   UNL A   1      46.682 -22.603 -40.943  0.00  0.00    -0.058 A 
ATOM     19  C   UNL A   1      47.158 -22.223 -39.694  0.00  0.00    -0.060 A 
ATOM     20  C   UNL A   1      46.710 -21.041 -39.108  0.00  0.00    -0.040 A 
ATOM     21  C   UNL A   1      45.798 -20.202 -39.763  0.00  0.00    +0.035 A 
ATOM     22  C   UNL A   1      45.330 -20.579 -41.051  0.00  0.00    -0.026 A 
ATOM     23  C   UNL A   1      44.327 -19.708 -41.771  0.00  0.00    -0.038 C 
ENDBRANCH  14  21
ENDBRANCH   8  14
ENDBRANCH   4  13
ENDBRANCH   3   6
ENDBRANCH   2   3
ENDBRANCH   1   2
BRANCH   1  24
ATOM     24  C   UNL A   1      38.659 -17.363 -35.428  0.00  0.00    -0.053 C 
BRANCH  24  25
ATOM     25  C   UNL A   1      38.650 -17.892 -33.991  0.00  0.00    -0.053 C 
BRANCH  25  26
ATOM     26  C   UNL A   1      38.784 -19.413 -33.882  0.00  0.00    -0.052 C 
BRANCH  26  27
ATOM     27  C   UNL A   1      39.568 -19.860 -32.643  0.00  0.00    -0.037 C 
BRANCH  27  28
ATOM     28  C   UNL A   1      40.973 -19.252 -32.590  0.00  0.00    +0.009 C 
BRANCH  28  29
ATOM     29  N   UNL A   1      41.982 -20.279 -32.889  0.00  0.00    -0.343 N 
ATOM     30  H   UNL A   1      42.153 -21.057 -32.311  0.00  0.00    +0.000 HD
BRANCH  29  31
ATOM     31  C   UNL A   1      42.687 -20.030 -34.100  0.00  0.00    +0.041 A 
ATOM     32  C   UNL A   1      43.734 -19.086 -34.106  0.00  0.00    -0.005 A 
ATOM     33  C   UNL A   1      44.385 -18.848 -35.318  0.00  0.00    +0.047 A 
ATOM     34  N   UNL A   1      44.030 -19.444 -36.480  0.00  0.00    -0.251 NA
ATOM     35  C   UNL A   1      43.025 -20.327 -36.480  0.00  0.00    +0.074 A 
ATOM     36  C   UNL A   1      42.700 -20.923 -37.689  0.00  0.00    -0.017 A 
ATOM     37  C   UNL A   1      41.665 -21.848 -37.786  0.00  0.00    +0.043 A 
ATOM     38 CL   UNL A   1      41.298 -22.571 -39.303  0.00  0.00    -0.083 Cl
ATOM     39  C   UNL A   1      40.928 -22.190 -36.664  0.00  0.00    -0.043 A 
ATOM     40  C   UNL A   1      41.240 -21.601 -35.439  0.00  0.00    -0.049 A 
ATOM     41  C   UNL A   1      42.298 -20.662 -35.319  0.00  0.00    +0.022 A 
ATOM     42  C   UNL A   1      45.512 -17.854 -35.431  0.00  0.00    -0.010 C 
ATOM     43  C   UNL A   1      46.199 -17.569 -34.101  0.00  0.00    -0.047 C 
ATOM     44  C   UNL A   1      45.156 -17.256 -33.040  0.00  0.00    -0.049 C 
ATOM     45  C   UNL A   1      44.233 -18.455 -32.826  0.00  0.00    -0.024 C 
ENDBRANCH  29  31
ENDBRANCH  28  29
ENDBRANCH  27  28
ENDBRANCH  26  27
ENDBRANCH  25  26
ENDBRANCH  24  25
ENDBRANCH   1  24
TORSDOF 13
ENDMDL
MODEL 8
REMARK VINA RESULT:    -7.097     19.981     23.094
REMARK INTER + INTRA:         -16.266
REMARK INTER:                 -10.775
REMARK INTRA:                  -5.491
REMARK UNBOUND:                -3.776
REMARK  Name = cpd19.pdb
REMARK  15 active torsions:
REMARK  status: ('A' for Active; 'I' for Inactive)
REMARK    1  A    between atoms: C_1  and  C_2
REMARK    2  A    between atoms: C_6  and  N_7
REMARK    3  A    between atoms: N_7  and  C_8
REMARK    4  A    between atoms: C_13  and  C_14
REMARK    5  A    between atoms: N_16  and  C_17
REMARK    6  A    between atoms: C_17  and  C_18
REMARK    7  A    between atoms: C_18  and  C_19
REMARK    8  A    between atoms: C_19  and  C_20
REMARK    9  A    between atoms: C_20  and  C_21
REMARK   10  A    between atoms: C_21  and  C_22
REMARK   11  A    between atoms: C_22  and  C_23
REMARK   12  A    between atoms: C_23  and  C_24
REMARK   13  A    between atoms: C_24  and  N_25
REMARK   14  A    between atoms: N_25  and  C_26
REMARK   15  A    between atoms: C_41  and  C_42
REMARK                            x       y       z     vdW  Elec       q    Type
REMARK                         _______ _______ _______ _____ _____    ______ ____
ROOT
ATOM      1  C   UNL A   1      46.772 -19.673 -40.363  0.00  0.00    -0.052 C 
ENDROOT
BRANCH   1   2
ATOM      2  C   UNL A   1      45.731 -20.428 -41.188  0.00  0.00    -0.037 C 
BRANCH   2   3
ATOM      3  C   UNL A   1      44.963 -21.474 -40.377  0.00  0.00    +0.012 C 
BRANCH   3   6
ATOM      4  C   UNL A   1      43.040 -20.768 -39.006  0.00  0.00    +0.246 C 
ATOM      5  O   UNL A   1      43.638 -20.984 -37.958  0.00  0.00    -0.270 OA
ATOM      6  N   UNL A   1      43.572 -21.083 -40.246  0.00  0.00    -0.311 N 
ATOM      7  H   UNL A   1      43.001 -21.040 -41.046  0.00  0.00    +0.000 HD
BRANCH   4  13
ATOM      8  C   UNL A   1      41.651 -18.706 -38.548  0.00  0.00    +0.044 A 
ATOM      9  C   UNL A   1      40.437 -18.019 -38.721  0.00  0.00    -0.040 A 
ATOM     10  C   UNL A   1      39.298 -18.665 -39.207  0.00  0.00    -0.060 A 
ATOM     11  C   UNL A   1      39.351 -20.012 -39.542  0.00  0.00    -0.061 A 
ATOM     12  C   UNL A   1      40.557 -20.704 -39.440  0.00  0.00    -0.048 A 
ATOM     13  C   UNL A   1      41.721 -20.052 -38.991  0.00  0.00    +0.058 A 
BRANCH   8  14
ATOM     14  N   UNL A   1      42.788 -18.040 -38.018  0.00  0.00    -0.314 N 
ATOM     15  H   UNL A   1      42.918 -18.164 -37.050  0.00  0.00    +0.000 HD
BRANCH  14  21
ATOM     16  C   UNL A   1      46.167 -14.358 -37.709  0.00  0.00    -0.039 C 
ATOM     17  C   UNL A   1      45.433 -15.423 -38.478  0.00  0.00    -0.046 A 
ATOM     18  C   UNL A   1      45.713 -15.575 -39.843  0.00  0.00    -0.058 A 
ATOM     19  C   UNL A   1      45.036 -16.521 -40.602  0.00  0.00    -0.060 A 
ATOM     20  C   UNL A   1      44.068 -17.329 -40.008  0.00  0.00    -0.040 A 
ATOM     21  C   UNL A   1      43.771 -17.226 -38.642  0.00  0.00    +0.035 A 
ATOM     22  C   UNL A   1      44.481 -16.274 -37.861  0.00  0.00    -0.026 A 
ATOM     23  C   UNL A   1      44.165 -16.123 -36.391  0.00  0.00    -0.038 C 
ENDBRANCH  14  21
ENDBRANCH   8  14
ENDBRANCH   4  13
ENDBRANCH   3   6
ENDBRANCH   2   3
ENDBRANCH   1   2
BRANCH   1  24
ATOM     24  C   UNL A   1      46.853 -20.108 -38.895  0.00  0.00    -0.053 C 
BRANCH  24  25
ATOM     25  C   UNL A   1      47.058 -18.896 -37.983  0.00  0.00    -0.053 C 
BRANCH  25  26
ATOM     26  C   UNL A   1      47.228 -19.247 -36.502  0.00  0.00    -0.052 C 
BRANCH  26  27
ATOM     27  C   UNL A   1      45.962 -18.998 -35.676  0.00  0.00    -0.037 C 
BRANCH  27  28
ATOM     28  C   UNL A   1      45.477 -20.260 -34.956  0.00  0.00    +0.009 C 
BRANCH  28  29
ATOM     29  N   UNL A   1      44.950 -19.915 -33.627  0.00  0.00    -0.343 N 
ATOM     30  H   UNL A   1      45.338 -20.247 -32.786  0.00  0.00    +0.000 HD
BRANCH  29  31
ATOM     31  C   UNL A   1      43.820 -19.053 -33.684  0.00  0.00    +0.041 A 
ATOM     32  C   UNL A   1      43.890 -17.784 -33.073  0.00  0.00    -0.005 A 
ATOM     33  C   UNL A   1      42.753 -16.976 -33.124  0.00  0.00    +0.047 A 
ATOM     34  N   UNL A   1      41.588 -17.370 -33.691  0.00  0.00    -0.251 NA
ATOM     35  C   UNL A   1      41.513 -18.580 -34.255  0.00  0.00    +0.074 A 
ATOM     36  C   UNL A   1      40.306 -18.940 -34.833  0.00  0.00    -0.017 A 
ATOM     37  C   UNL A   1      40.134 -20.182 -35.438  0.00  0.00    +0.043 A 
ATOM     38 CL   UNL A   1      38.622 -20.588 -36.150  0.00  0.00    -0.083 Cl
ATOM     39  C   UNL A   1      41.177 -21.093 -35.469  0.00  0.00    -0.043 A 
ATOM     40  C   UNL A   1      42.400 -20.749 -34.892  0.00  0.00    -0.049 A 
ATOM     41  C   UNL A   1      42.596 -19.484 -34.279  0.00  0.00    +0.022 A 
ATOM     42  C   UNL A   1      42.724 -15.606 -32.497  0.00  0.00    -0.010 C 
ATOM     43  C   UNL A   1      44.110 -15.001 -32.308  0.00  0.00    -0.047 C 
ATOM     44  C   UNL A   1      45.023 -16.011 -31.631  0.00  0.00    -0.049 C 
ATOM     45  C   UNL A   1      45.187 -17.254 -32.503  0.00  0.00    -0.024 C 
ENDBRANCH  29  31
ENDBRANCH  28  29
ENDBRANCH  27  28
ENDBRANCH  26  27
ENDBRANCH  25  26
ENDBRANCH  24  25
ENDBRANCH   1  24
TORSDOF 13
ENDMDL
MODEL 9
REMARK VINA RESULT:    -7.063     18.472     23.166
REMARK INTER + INTRA:         -16.207
REMARK INTER:                 -12.210
REMARK INTRA:                  -3.998
REMARK UNBOUND:                -3.776
REMARK  Name = cpd19.pdb
REMARK  15 active torsions:
REMARK  status: ('A' for Active; 'I' for Inactive)
REMARK    1  A    between atoms: C_1  and  C_2
REMARK    2  A    between atoms: C_6  and  N_7
REMARK    3  A    between atoms: N_7  and  C_8
REMARK    4  A    between atoms: C_13  and  C_14
REMARK    5  A    between atoms: N_16  and  C_17
REMARK    6  A    between atoms: C_17  and  C_18
REMARK    7  A    between atoms: C_18  and  C_19
REMARK    8  A    between atoms: C_19  and  C_20
REMARK    9  A    between atoms: C_20  and  C_21
REMARK   10  A    between atoms: C_21  and  C_22
REMARK   11  A    between atoms: C_22  and  C_23
REMARK   12  A    between atoms: C_23  and  C_24
REMARK   13  A    between atoms: C_24  and  N_25
REMARK   14  A    between atoms: N_25  and  C_26
REMARK   15  A    between atoms: C_41  and  C_42
REMARK                            x       y       z     vdW  Elec       q    Type
REMARK                         _______ _______ _______ _____ _____    ______ ____
ROOT
ATOM      1  C   UNL A   1      46.436 -17.604 -35.341  0.00  0.00    -0.052 C 
ENDROOT
BRANCH   1   2
ATOM      2  C   UNL A   1      46.029 -18.311 -36.633  0.00  0.00    -0.037 C 
BRANCH   2   3
ATOM      3  C   UNL A   1      46.672 -19.690 -36.793  0.00  0.00    +0.012 C 
BRANCH   3   6
ATOM      4  C   UNL A   1      45.243 -20.539 -38.614  0.00  0.00    +0.246 C 
ATOM      5  O   UNL A   1      44.276 -20.664 -37.871  0.00  0.00    -0.270 OA
ATOM      6  N   UNL A   1      46.496 -20.170 -38.151  0.00  0.00    -0.311 N 
ATOM      7  H   UNL A   1      47.275 -20.234 -38.750  0.00  0.00    +0.000 HD
BRANCH   4  13
ATOM      8  C   UNL A   1      44.666 -19.582 -40.882  0.00  0.00    +0.044 A 
ATOM      9  C   UNL A   1      44.703 -19.716 -42.280  0.00  0.00    -0.040 A 
ATOM     10  C   UNL A   1      45.026 -20.931 -42.887  0.00  0.00    -0.060 A 
ATOM     11  C   UNL A   1      45.332 -22.039 -42.108  0.00  0.00    -0.061 A 
ATOM     12  C   UNL A   1      45.364 -21.921 -40.719  0.00  0.00    -0.048 A 
ATOM     13  C   UNL A   1      45.080 -20.690 -40.098  0.00  0.00    +0.058 A 
BRANCH   8  14
ATOM     14  N   UNL A   1      44.300 -18.347 -40.284  0.00  0.00    -0.314 N 
ATOM     15  H   UNL A   1      44.005 -18.420 -39.347  0.00  0.00    +0.000 HD
BRANCH  14  21
ATOM     16  C   UNL A   1      46.714 -14.070 -41.260  0.00  0.00    -0.039 C 
ATOM     17  C   UNL A   1      45.481 -14.932 -41.284  0.00  0.00    -0.046 A 
ATOM     18  C   UNL A   1      44.296 -14.389 -41.799  0.00  0.00    -0.058 A 
ATOM     19  C   UNL A   1      43.123 -15.134 -41.811  0.00  0.00    -0.060 A 
ATOM     20  C   UNL A   1      43.118 -16.433 -41.307  0.00  0.00    -0.040 A 
ATOM     21  C   UNL A   1      44.285 -17.024 -40.802  0.00  0.00    +0.035 A 
ATOM     22  C   UNL A   1      45.489 -16.269 -40.812  0.00  0.00    -0.026 A 
ATOM     23  C   UNL A   1      46.757 -16.870 -40.251  0.00  0.00    -0.038 C 
ENDBRANCH  14  21
ENDBRANCH   8  14
ENDBRANCH   4  13
ENDBRANCH   3   6
ENDBRANCH   2   3
ENDBRANCH   1   2
BRANCH   1  24
ATOM     24  C   UNL A   1      45.262 -17.209 -34.439  0.00  0.00    -0.053 C 
BRANCH  24  25
ATOM     25  C   UNL A   1      44.077 -18.155 -34.649  0.00  0.00    -0.053 C 
BRANCH  25  26
ATOM     26  C   UNL A   1      42.942 -17.973 -33.637  0.00  0.00    -0.052 C 
BRANCH  26  27
ATOM     27  C   UNL A   1      41.698 -17.311 -34.240  0.00  0.00    -0.037 C 
BRANCH  27  28
ATOM     28  C   UNL A   1      41.454 -17.740 -35.689  0.00  0.00    +0.009 C 
BRANCH  28  29
ATOM     29  N   UNL A   1      40.215 -18.526 -35.785  0.00  0.00    -0.343 N 
ATOM     30  H   UNL A   1      39.315 -18.136 -35.691  0.00  0.00    +0.000 HD
BRANCH  29  31
ATOM     31  C   UNL A   1      40.450 -19.908 -36.026  0.00  0.00    +0.041 A 
ATOM     32  C   UNL A   1      40.440 -20.808 -34.941  0.00  0.00    -0.005 A 
ATOM     33  C   UNL A   1      40.703 -22.152 -35.211  0.00  0.00    +0.047 A 
ATOM     34  N   UNL A   1      41.004 -22.615 -36.447  0.00  0.00    -0.251 NA
ATOM     35  C   UNL A   1      41.032 -21.760 -37.475  0.00  0.00    +0.074 A 
ATOM     36  C   UNL A   1      41.335 -22.276 -38.726  0.00  0.00    -0.017 A 
ATOM     37  C   UNL A   1      41.392 -21.461 -39.852  0.00  0.00    +0.043 A 
ATOM     38 CL   UNL A   1      41.764 -22.141 -41.387  0.00  0.00    -0.083 Cl
ATOM     39  C   UNL A   1      41.150 -20.101 -39.742  0.00  0.00    -0.043 A 
ATOM     40  C   UNL A   1      40.845 -19.563 -38.491  0.00  0.00    -0.049 A 
ATOM     41  C   UNL A   1      40.773 -20.381 -37.334  0.00  0.00    +0.022 A 
ATOM     42  C   UNL A   1      40.722 -23.192 -34.120  0.00  0.00    -0.010 C 
ATOM     43  C   UNL A   1      39.938 -22.779 -32.881  0.00  0.00    -0.047 C 
ATOM     44  C   UNL A   1      40.349 -21.378 -32.456  0.00  0.00    -0.049 C 
ATOM     45  C   UNL A   1      40.025 -20.368 -33.555  0.00  0.00    -0.024 C 
ENDBRANCH  29  31
ENDBRANCH  28  29
ENDBRANCH  27  28
ENDBRANCH  26  27
ENDBRANCH  25  26
ENDBRANCH  24  25
ENDBRANCH   1  24
TORSDOF 13
ENDMDL
MODEL 10
REMARK VINA RESULT:    -7.052     18.641     23.090
REMARK INTER + INTRA:         -16.188
REMARK INTER:                 -12.008
REMARK INTRA:                  -4.179
REMARK UNBOUND:                -3.776
REMARK  Name = cpd19.pdb
REMARK  15 active torsions:
REMARK  status: ('A' for Active; 'I' for Inactive)
REMARK    1  A    between atoms: C_1  and  C_2
REMARK    2  A    between atoms: C_6  and  N_7
REMARK    3  A    between atoms: N_7  and  C_8
REMARK    4  A    between atoms: C_13  and  C_14
REMARK    5  A    between atoms: N_16  and  C_17
REMARK    6  A    between atoms: C_17  and  C_18
REMARK    7  A    between atoms: C_18  and  C_19
REMARK    8  A    between atoms: C_19  and  C_20
REMARK    9  A    between atoms: C_20  and  C_21
REMARK   10  A    between atoms: C_21  and  C_22
REMARK   11  A    between atoms: C_22  and  C_23
REMARK   12  A    between atoms: C_23  and  C_24
REMARK   13  A    between atoms: C_24  and  N_25
REMARK   14  A    between atoms: N_25  and  C_26
REMARK   15  A    between atoms: C_41  and  C_42
REMARK                            x       y       z     vdW  Elec       q    Type
REMARK                         _______ _______ _______ _____ _____    ______ ____
ROOT
ATOM      1  C   UNL A   1      44.618 -16.786 -40.190  0.00  0.00    -0.052 C 
ENDROOT
BRANCH   1   2
ATOM      2  C   UNL A   1      45.955 -16.269 -40.720  0.00  0.00    -0.037 C 
BRANCH   2   3
ATOM      3  C   UNL A   1      47.156 -17.056 -40.193  0.00  0.00    +0.012 C 
BRANCH   3   6
ATOM      4  C   UNL A   1      47.183 -19.521 -40.158  0.00  0.00    +0.246 C 
ATOM      5  O   UNL A   1      47.230 -19.558 -38.934  0.00  0.00    -0.270 OA
ATOM      6  N   UNL A   1      47.253 -18.335 -40.871  0.00  0.00    -0.311 N 
ATOM      7  H   UNL A   1      47.370 -18.360 -41.848  0.00  0.00    +0.000 HD
BRANCH   4  13
ATOM      8  C   UNL A   1      45.620 -21.193 -41.231  0.00  0.00    +0.044 A 
ATOM      9  C   UNL A   1      45.446 -22.268 -42.120  0.00  0.00    -0.040 A 
ATOM     10  C   UNL A   1      46.536 -22.983 -42.620  0.00  0.00    -0.060 A 
ATOM     11  C   UNL A   1      47.828 -22.631 -42.250  0.00  0.00    -0.061 A 
ATOM     12  C   UNL A   1      48.035 -21.530 -41.420  0.00  0.00    -0.048 A 
ATOM     13  C   UNL A   1      46.946 -20.777 -40.944  0.00  0.00    +0.058 A 
BRANCH   8  14
ATOM     14  N   UNL A   1      44.496 -20.501 -40.706  0.00  0.00    -0.314 N 
ATOM     15  H   UNL A   1      44.247 -19.691 -41.206  0.00  0.00    +0.000 HD
BRANCH  14  21
ATOM     16  C   UNL A   1      40.164 -22.198 -38.853  0.00  0.00    -0.039 C 
ATOM     17  C   UNL A   1      41.543 -21.617 -38.684  0.00  0.00    -0.046 A 
ATOM     18  C   UNL A   1      41.987 -21.316 -37.389  0.00  0.00    -0.058 A 
ATOM     19  C   UNL A   1      43.238 -20.748 -37.185  0.00  0.00    -0.060 A 
ATOM     20  C   UNL A   1      44.064 -20.471 -38.273  0.00  0.00    -0.040 A 
ATOM     21  C   UNL A   1      43.669 -20.776 -39.583  0.00  0.00    +0.035 A 
ATOM     22  C   UNL A   1      42.399 -21.379 -39.789  0.00  0.00    -0.026 A 
ATOM     23  C   UNL A   1      41.935 -21.696 -41.192  0.00  0.00    -0.038 C 
ENDBRANCH  14  21
ENDBRANCH   8  14
ENDBRANCH   4  13
ENDBRANCH   3   6
ENDBRANCH   2   3
ENDBRANCH   1   2
BRANCH   1  24
ATOM     24  C   UNL A   1      43.400 -15.977 -40.650  0.00  0.00    -0.053 C 
BRANCH  24  25
ATOM     25  C   UNL A   1      42.209 -16.217 -39.719  0.00  0.00    -0.053 C 
BRANCH  25  26
ATOM     26  C   UNL A   1      41.815 -17.690 -39.572  0.00  0.00    -0.052 C 
BRANCH  26  27
ATOM     27  C   UNL A   1      40.900 -17.951 -38.371  0.00  0.00    -0.037 C 
BRANCH  27  28
ATOM     28  C   UNL A   1      41.093 -16.920 -37.255  0.00  0.00    +0.009 C 
BRANCH  28  29
ATOM     29  N   UNL A   1      40.214 -17.232 -36.118  0.00  0.00    -0.343 N 
ATOM     30  H   UNL A   1      39.322 -16.834 -35.996  0.00  0.00    +0.000 HD
BRANCH  29  31
ATOM     31  C   UNL A   1      40.787 -18.168 -35.212  0.00  0.00    +0.041 A 
ATOM     32  C   UNL A   1      40.179 -19.429 -35.050  0.00  0.00    -0.005 A 
ATOM     33  C   UNL A   1      40.753 -20.311 -34.132  0.00  0.00    +0.047 A 
ATOM     34  N   UNL A   1      41.827 -19.996 -33.372  0.00  0.00    -0.251 NA
ATOM     35  C   UNL A   1      42.394 -18.792 -33.511  0.00  0.00    +0.074 A 
ATOM     36  C   UNL A   1      43.499 -18.513 -32.722  0.00  0.00    -0.017 A 
ATOM     37  C   UNL A   1      44.150 -17.285 -32.795  0.00  0.00    +0.043 A 
ATOM     38 CL   UNL A   1      45.522 -16.980 -31.802  0.00  0.00    -0.083 Cl
ATOM     39  C   UNL A   1      43.697 -16.306 -33.665  0.00  0.00    -0.043 A 
ATOM     40  C   UNL A   1      42.587 -16.569 -34.467  0.00  0.00    -0.049 A 
ATOM     41  C   UNL A   1      41.916 -17.818 -34.413  0.00  0.00    +0.022 A 
ATOM     42  C   UNL A   1      40.175 -21.680 -33.881  0.00  0.00    -0.010 C 
ATOM     43  C   UNL A   1      39.316 -22.192 -35.030  0.00  0.00    -0.047 C 
ATOM     44  C   UNL A   1      38.312 -21.124 -35.436  0.00  0.00    -0.049 C 
ATOM     45  C   UNL A   1      39.033 -19.872 -35.931  0.00  0.00    -0.024 C 
ENDBRANCH  29  31
ENDBRANCH  28  29
ENDBRANCH  27  28
ENDBRANCH  26  27
ENDBRANCH  25  26
ENDBRANCH  24  25
ENDBRANCH   1  24
TORSDOF 13
ENDMDL
MODEL 11
REMARK VINA RESULT:    -7.008     18.211     23.532
REMARK INTER + INTRA:         -16.110
REMARK INTER:                 -11.249
REMARK INTRA:                  -4.861
REMARK UNBOUND:                -3.776
REMARK  Name = cpd19.pdb
REMARK  15 active torsions:
REMARK  status: ('A' for Active; 'I' for Inactive)
REMARK    1  A    between atoms: C_1  and  C_2
REMARK    2  A    between atoms: C_6  and  N_7
REMARK    3  A    between atoms: N_7  and  C_8
REMARK    4  A    between atoms: C_13  and  C_14
REMARK    5  A    between atoms: N_16  and  C_17
REMARK    6  A    between atoms: C_17  and  C_18
REMARK    7  A    between atoms: C_18  and  C_19
REMARK    8  A    between atoms: C_19  and  C_20
REMARK    9  A    between atoms: C_20  and  C_21
REMARK   10  A    between atoms: C_21  and  C_22
REMARK   11  A    between atoms: C_22  and  C_23
REMARK   12  A    between atoms: C_23  and  C_24
REMARK   13  A    between atoms: C_24  and  N_25
REMARK   14  A    between atoms: N_25  and  C_26
REMARK   15  A    between atoms: C_41  and  C_42
REMARK                            x       y       z     vdW  Elec       q    Type
REMARK                         _______ _______ _______ _____ _____    ______ ____
ROOT
ATOM      1  C   UNL A   1      46.688 -17.635 -37.546  0.00  0.00    -0.052 C 
ENDROOT
BRANCH   1   2
ATOM      2  C   UNL A   1      47.204 -19.072 -37.488  0.00  0.00    -0.037 C 
BRANCH   2   3
ATOM      3  C   UNL A   1      46.816 -19.799 -36.198  0.00  0.00    +0.012 C 
BRANCH   3   6
ATOM      4  C   UNL A   1      44.974 -19.828 -34.560  0.00  0.00    +0.246 C 
ATOM      5  O   UNL A   1      45.471 -20.757 -33.935  0.00  0.00    -0.270 OA
ATOM      6  N   UNL A   1      45.508 -19.360 -35.751  0.00  0.00    -0.311 N 
ATOM      7  H   UNL A   1      44.994 -18.723 -36.297  0.00  0.00    +0.000 HD
BRANCH   4  13
ATOM      8  C   UNL A   1      42.587 -19.771 -33.728  0.00  0.00    +0.044 A 
ATOM      9  C   UNL A   1      41.578 -19.078 -33.038  0.00  0.00    -0.040 A 
ATOM     10  C   UNL A   1      41.707 -17.723 -32.726  0.00  0.00    -0.060 A 
ATOM     11  C   UNL A   1      42.857 -17.032 -33.087  0.00  0.00    -0.061 A 
ATOM     12  C   UNL A   1      43.901 -17.708 -33.717  0.00  0.00    -0.048 A 
ATOM     13  C   UNL A   1      43.798 -19.082 -34.000  0.00  0.00    +0.058 A 
BRANCH   8  14
ATOM     14  N   UNL A   1      42.421 -21.140 -34.068  0.00  0.00    -0.314 N 
ATOM     15  H   UNL A   1      43.155 -21.725 -33.772  0.00  0.00    +0.000 HD
BRANCH  14  21
ATOM     16  C   UNL A   1      38.336 -24.034 -33.960  0.00  0.00    -0.039 C 
ATOM     17  C   UNL A   1      39.370 -23.226 -34.697  0.00  0.00    -0.046 A 
ATOM     18  C   UNL A   1      39.307 -23.178 -36.097  0.00  0.00    -0.058 A 
ATOM     19  C   UNL A   1      40.259 -22.473 -36.823  0.00  0.00    -0.060 A 
ATOM     20  C   UNL A   1      41.289 -21.808 -36.161  0.00  0.00    -0.040 A 
ATOM     21  C   UNL A   1      41.378 -21.812 -34.762  0.00  0.00    +0.035 A 
ATOM     22  C   UNL A   1      40.390 -22.512 -34.018  0.00  0.00    -0.026 A 
ATOM     23  C   UNL A   1      40.474 -22.556 -32.510  0.00  0.00    -0.038 C 
ENDBRANCH  14  21
ENDBRANCH   8  14
ENDBRANCH   4  13
ENDBRANCH   3   6
ENDBRANCH   2   3
ENDBRANCH   1   2
BRANCH   1  24
ATOM     24  C   UNL A   1      47.130 -16.853 -38.788  0.00  0.00    -0.053 C 
BRANCH  24  25
ATOM     25  C   UNL A   1      46.319 -15.563 -38.932  0.00  0.00    -0.053 C 
BRANCH  25  26
ATOM     26  C   UNL A   1      46.490 -14.863 -40.283  0.00  0.00    -0.052 C 
BRANCH  26  27
ATOM     27  C   UNL A   1      45.218 -14.885 -41.138  0.00  0.00    -0.037 C 
BRANCH  27  28
ATOM     28  C   UNL A   1      43.953 -15.081 -40.297  0.00  0.00    +0.009 C 
BRANCH  28  29
ATOM     29  N   UNL A   1      43.178 -16.222 -40.805  0.00  0.00    -0.343 N 
ATOM     30  H   UNL A   1      42.783 -16.253 -41.706  0.00  0.00    +0.000 HD
BRANCH  29  31
ATOM     31  C   UNL A   1      43.057 -17.278 -39.859  0.00  0.00    +0.041 A 
ATOM     32  C   UNL A   1      42.198 -17.116 -38.753  0.00  0.00    -0.005 A 
ATOM     33  C   UNL A   1      42.126 -18.161 -37.830  0.00  0.00    +0.047 A 
ATOM     34  N   UNL A   1      42.867 -19.290 -37.928  0.00  0.00    -0.251 NA
ATOM     35  C   UNL A   1      43.696 -19.438 -38.967  0.00  0.00    +0.074 A 
ATOM     36  C   UNL A   1      44.429 -20.613 -39.036  0.00  0.00    -0.017 A 
ATOM     37  C   UNL A   1      45.321 -20.851 -40.077  0.00  0.00    +0.043 A 
ATOM     38 CL   UNL A   1      46.207 -22.324 -40.130  0.00  0.00    -0.083 Cl
ATOM     39  C   UNL A   1      45.498 -19.904 -41.073  0.00  0.00    -0.043 A 
ATOM     40  C   UNL A   1      44.770 -18.716 -41.021  0.00  0.00    -0.049 A 
ATOM     41  C   UNL A   1      43.849 -18.460 -39.972  0.00  0.00    +0.022 A 
ATOM     42  C   UNL A   1      41.243 -18.084 -36.611  0.00  0.00    -0.010 C 
ATOM     43  C   UNL A   1      40.102 -17.085 -36.757  0.00  0.00    -0.047 C 
ATOM     44  C   UNL A   1      40.644 -15.755 -37.256  0.00  0.00    -0.049 C 
ATOM     45  C   UNL A   1      41.281 -15.920 -38.635  0.00  0.00    -0.024 C 
ENDBRANCH  29  31
ENDBRANCH  28  29
ENDBRANCH  27  28
ENDBRANCH  26  27
ENDBRANCH  25  26
ENDBRANCH  24  25
ENDBRANCH   1  24
TORSDOF 13
ENDMDL
MODEL 12
REMARK VINA RESULT:    -6.998     18.089     22.757
REMARK INTER + INTRA:         -16.093
REMARK INTER:                 -12.045
REMARK INTRA:                  -4.047
REMARK UNBOUND:                -3.776
REMARK  Name = cpd19.pdb
REMARK  15 active torsions:
REMARK  status: ('A' for Active; 'I' for Inactive)
REMARK    1  A    between atoms: C_1  and  C_2
REMARK    2  A    between atoms: C_6  and  N_7
REMARK    3  A    between atoms: N_7  and  C_8
REMARK    4  A    between atoms: C_13  and  C_14
REMARK    5  A    between atoms: N_16  and  C_17
REMARK    6  A    between atoms: C_17  and  C_18
REMARK    7  A    between atoms: C_18  and  C_19
REMARK    8  A    between atoms: C_19  and  C_20
REMARK    9  A    between atoms: C_20  and  C_21
REMARK   10  A    between atoms: C_21  and  C_22
REMARK   11  A    between atoms: C_22  and  C_23
REMARK   12  A    between atoms: C_23  and  C_24
REMARK   13  A    between atoms: C_24  and  N_25
REMARK   14  A    between atoms: N_25  and  C_26
REMARK   15  A    between atoms: C_41  and  C_42
REMARK                            x       y       z     vdW  Elec       q    Type
REMARK                         _______ _______ _______ _____ _____    ______ ____
ROOT
ATOM      1  C   UNL A   1      42.252 -18.436 -33.234  0.00  0.00    -0.052 C 
ENDROOT
BRANCH   1   2
ATOM      2  C   UNL A   1      43.271 -17.638 -34.046  0.00  0.00    -0.037 C 
BRANCH   2   3
ATOM      3  C   UNL A   1      43.776 -18.388 -35.281  0.00  0.00    +0.012 C 
BRANCH   3   6
ATOM      4  C   UNL A   1      45.915 -17.992 -36.442  0.00  0.00    +0.246 C 
ATOM      5  O   UNL A   1      46.406 -19.027 -36.006  0.00  0.00    -0.270 OA
ATOM      6  N   UNL A   1      44.664 -17.539 -36.053  0.00  0.00    -0.311 N 
ATOM      7  H   UNL A   1      44.375 -16.632 -36.303  0.00  0.00    +0.000 HD
BRANCH   4  13
ATOM      8  C   UNL A   1      46.578 -17.650 -38.858  0.00  0.00    +0.044 A 
ATOM      9  C   UNL A   1      47.096 -16.796 -39.846  0.00  0.00    -0.040 A 
ATOM     10  C   UNL A   1      47.739 -15.602 -39.512  0.00  0.00    -0.060 A 
ATOM     11  C   UNL A   1      47.867 -15.229 -38.180  0.00  0.00    -0.061 A 
ATOM     12  C   UNL A   1      47.308 -16.025 -37.181  0.00  0.00    -0.048 A 
ATOM     13  C   UNL A   1      46.622 -17.210 -37.510  0.00  0.00    +0.058 A 
BRANCH   8  14
ATOM     14  N   UNL A   1      45.960 -18.878 -39.216  0.00  0.00    -0.314 N 
ATOM     15  H   UNL A   1      45.816 -19.496 -38.464  0.00  0.00    +0.000 HD
BRANCH  14  21
ATOM     16  C   UNL A   1      45.852 -22.551 -42.618  0.00  0.00    -0.039 C 
ATOM     17  C   UNL A   1      45.461 -21.181 -42.132  0.00  0.00    -0.046 A 
ATOM     18  C   UNL A   1      44.671 -20.377 -42.965  0.00  0.00    -0.058 A 
ATOM     19  C   UNL A   1      44.313 -19.092 -42.576  0.00  0.00    -0.060 A 
ATOM     20  C   UNL A   1      44.741 -18.592 -41.347  0.00  0.00    -0.040 A 
ATOM     21  C   UNL A   1      45.514 -19.369 -40.473  0.00  0.00    +0.035 A 
ATOM     22  C   UNL A   1      45.860 -20.692 -40.862  0.00  0.00    -0.026 A 
ATOM     23  C   UNL A   1      46.713 -21.545 -39.952  0.00  0.00    -0.038 C 
ENDBRANCH  14  21
ENDBRANCH   8  14
ENDBRANCH   4  13
ENDBRANCH   3   6
ENDBRANCH   2   3
ENDBRANCH   1   2
BRANCH   1  24
ATOM     24  C   UNL A   1      42.253 -19.942 -33.520  0.00  0.00    -0.053 C 
BRANCH  24  25
ATOM     25  C   UNL A   1      41.273 -20.669 -32.596  0.00  0.00    -0.053 C 
BRANCH  25  26
ATOM     26  C   UNL A   1      41.257 -22.190 -32.772  0.00  0.00    -0.052 C 
BRANCH  26  27
ATOM     27  C   UNL A   1      40.017 -22.697 -33.514  0.00  0.00    -0.037 C 
BRANCH  27  28
ATOM     28  C   UNL A   1      40.287 -22.947 -35.000  0.00  0.00    +0.009 C 
BRANCH  28  29
ATOM     29  N   UNL A   1      39.289 -22.247 -35.823  0.00  0.00    -0.343 N 
ATOM     30  H   UNL A   1      38.392 -22.605 -36.011  0.00  0.00    +0.000 HD
BRANCH  29  31
ATOM     31  C   UNL A   1      39.756 -20.997 -36.319  0.00  0.00    +0.041 A 
ATOM     32  C   UNL A   1      40.664 -20.981 -37.398  0.00  0.00    -0.005 A 
ATOM     33  C   UNL A   1      41.121 -19.738 -37.840  0.00  0.00    +0.047 A 
ATOM     34  N   UNL A   1      40.769 -18.568 -37.259  0.00  0.00    -0.251 NA
ATOM     35  C   UNL A   1      39.921 -18.582 -36.224  0.00  0.00    +0.074 A 
ATOM     36  C   UNL A   1      39.577 -17.362 -35.664  0.00  0.00    -0.017 A 
ATOM     37  C   UNL A   1      38.707 -17.280 -34.581  0.00  0.00    +0.043 A 
ATOM     38 CL   UNL A   1      38.300 -15.746 -33.919  0.00  0.00    -0.083 Cl
ATOM     39  C   UNL A   1      38.167 -18.432 -34.032  0.00  0.00    -0.043 A 
ATOM     40  C   UNL A   1      38.501 -19.670 -34.582  0.00  0.00    -0.049 A 
ATOM     41  C   UNL A   1      39.379 -19.772 -35.692  0.00  0.00    +0.022 A 
ATOM     42  C   UNL A   1      42.098 -19.613 -38.981  0.00  0.00    -0.010 C 
ATOM     43  C   UNL A   1      42.106 -20.827 -39.902  0.00  0.00    -0.047 C 
ATOM     44  C   UNL A   1      42.226 -22.097 -39.076  0.00  0.00    -0.049 C 
ATOM     45  C   UNL A   1      41.026 -22.245 -38.143  0.00  0.00    -0.024 C 
ENDBRANCH  29  31
ENDBRANCH  28  29
ENDBRANCH  27  28
ENDBRANCH  26  27
ENDBRANCH  25  26
ENDBRANCH  24  25
ENDBRANCH   1  24
TORSDOF 13
ENDMDL
MODEL 13
REMARK VINA RESULT:    -6.997     17.723     21.704
REMARK INTER + INTRA:         -16.090
REMARK INTER:                 -12.993
REMARK INTRA:                  -3.097
REMARK UNBOUND:                -3.776
REMARK  Name = cpd19.pdb
REMARK  15 active torsions:
REMARK  status: ('A' for Active; 'I' for Inactive)
REMARK    1  A    between atoms: C_1  and  C_2
REMARK    2  A    between atoms: C_6  and  N_7
REMARK    3  A    between atoms: N_7  and  C_8
REMARK    4  A    between atoms: C_13  and  C_14
REMARK    5  A    between atoms: N_16  and  C_17
REMARK    6  A    between atoms: C_17  and  C_18
REMARK    7  A    between atoms: C_18  and  C_19
REMARK    8  A    between atoms: C_19  and  C_20
REMARK    9  A    between atoms: C_20  and  C_21
REMARK   10  A    between atoms: C_21  and  C_22
REMARK   11  A    between atoms: C_22  and  C_23
REMARK   12  A    between atoms: C_23  and  C_24
REMARK   13  A    between atoms: C_24  and  N_25
REMARK   14  A    between atoms: N_25  and  C_26
REMARK   15  A    between atoms: C_41  and  C_42
REMARK                            x       y       z     vdW  Elec       q    Type
REMARK                         _______ _______ _______ _____ _____    ______ ____
ROOT
ATOM      1  C   UNL A   1      42.145 -20.379 -38.495  0.00  0.00    -0.052 C 
ENDROOT
BRANCH   1   2
ATOM      2  C   UNL A   1      41.426 -21.368 -39.411  0.00  0.00    -0.037 C 
BRANCH   2   3
ATOM      3  C   UNL A   1      41.917 -21.312 -40.860  0.00  0.00    +0.012 C 
BRANCH   3   6
ATOM      4  C   UNL A   1      44.271 -21.274 -41.592  0.00  0.00    +0.246 C 
ATOM      5  O   UNL A   1      44.111 -20.244 -42.236  0.00  0.00    -0.270 OA
ATOM      6  N   UNL A   1      43.223 -21.934 -40.970  0.00  0.00    -0.311 N 
ATOM      7  H   UNL A   1      43.367 -22.834 -40.599  0.00  0.00    +0.000 HD
BRANCH   4  13
ATOM      8  C   UNL A   1      46.289 -21.635 -40.112  0.00  0.00    +0.044 A 
ATOM      9  C   UNL A   1      47.498 -22.314 -39.884  0.00  0.00    -0.040 A 
ATOM     10  C   UNL A   1      48.118 -23.057 -40.891  0.00  0.00    -0.060 A 
ATOM     11  C   UNL A   1      47.535 -23.147 -42.149  0.00  0.00    -0.061 A 
ATOM     12  C   UNL A   1      46.304 -22.535 -42.387  0.00  0.00    -0.048 A 
ATOM     13  C   UNL A   1      45.651 -21.819 -41.367  0.00  0.00    +0.058 A 
BRANCH   8  14
ATOM     14  N   UNL A   1      45.694 -20.855 -39.085  0.00  0.00    -0.314 N 
ATOM     15  H   UNL A   1      44.730 -21.012 -38.963  0.00  0.00    +0.000 HD
BRANCH  14  21
ATOM     16  C   UNL A   1      47.365 -16.203 -38.287  0.00  0.00    -0.039 C 
ATOM     17  C   UNL A   1      47.058 -17.600 -37.821  0.00  0.00    -0.046 A 
ATOM     18  C   UNL A   1      47.365 -17.945 -36.497  0.00  0.00    -0.058 A 
ATOM     19  C   UNL A   1      47.132 -19.233 -36.029  0.00  0.00    -0.060 A 
ATOM     20  C   UNL A   1      46.590 -20.195 -36.879  0.00  0.00    -0.040 A 
ATOM     21  C   UNL A   1      46.248 -19.888 -38.204  0.00  0.00    +0.035 A 
ATOM     22  C   UNL A   1      46.464 -18.565 -38.674  0.00  0.00    -0.026 A 
ATOM     23  C   UNL A   1      46.129 -18.211 -40.104  0.00  0.00    -0.038 C 
ENDBRANCH  14  21
ENDBRANCH   8  14
ENDBRANCH   4  13
ENDBRANCH   3   6
ENDBRANCH   2   3
ENDBRANCH   1   2
BRANCH   1  24
ATOM     24  C   UNL A   1      41.563 -20.291 -37.079  0.00  0.00    -0.053 C 
BRANCH  24  25
ATOM     25  C   UNL A   1      40.064 -20.599 -37.091  0.00  0.00    -0.053 C 
BRANCH  25  26
ATOM     26  C   UNL A   1      39.690 -21.920 -36.413  0.00  0.00    -0.052 C 
BRANCH  26  27
ATOM     27  C   UNL A   1      40.854 -22.552 -35.643  0.00  0.00    -0.037 C 
BRANCH  27  28
ATOM     28  C   UNL A   1      40.451 -22.994 -34.234  0.00  0.00    +0.009 C 
BRANCH  28  29
ATOM     29  N   UNL A   1      41.139 -22.174 -33.227  0.00  0.00    -0.343 N 
ATOM     30  H   UNL A   1      41.760 -22.543 -32.557  0.00  0.00    +0.000 HD
BRANCH  29  31
ATOM     31  C   UNL A   1      40.816 -20.791 -33.320  0.00  0.00    +0.041 A 
ATOM     32  C   UNL A   1      41.850 -19.854 -33.522  0.00  0.00    -0.005 A 
ATOM     33  C   UNL A   1      41.498 -18.504 -33.581  0.00  0.00    +0.047 A 
ATOM     34  N   UNL A   1      40.231 -18.060 -33.413  0.00  0.00    -0.251 NA
ATOM     35  C   UNL A   1      39.251 -18.946 -33.203  0.00  0.00    +0.074 A 
ATOM     36  C   UNL A   1      37.965 -18.450 -33.047  0.00  0.00    -0.017 A 
ATOM     37  C   UNL A   1      36.885 -19.297 -32.820  0.00  0.00    +0.043 A 
ATOM     38 CL   UNL A   1      35.304 -18.643 -32.638  0.00  0.00    -0.083 Cl
ATOM     39  C   UNL A   1      37.077 -20.667 -32.739  0.00  0.00    -0.043 A 
ATOM     40  C   UNL A   1      38.363 -21.184 -32.893  0.00  0.00    -0.049 A 
ATOM     41  C   UNL A   1      39.476 -20.337 -33.135  0.00  0.00    +0.022 A 
ATOM     42  C   UNL A   1      42.529 -17.425 -33.786  0.00  0.00    -0.010 C 
ATOM     43  C   UNL A   1      43.811 -17.931 -34.435  0.00  0.00    -0.047 C 
ATOM     44  C   UNL A   1      44.300 -19.172 -33.705  0.00  0.00    -0.049 C 
ATOM     45  C   UNL A   1      43.268 -20.294 -33.803  0.00  0.00    -0.024 C 
ENDBRANCH  29  31
ENDBRANCH  28  29
ENDBRANCH  27  28
ENDBRANCH  26  27
ENDBRANCH  25  26
ENDBRANCH  24  25
ENDBRANCH   1  24
TORSDOF 13
ENDMDL
MODEL 14
REMARK VINA RESULT:    -6.973     19.402     22.635
REMARK INTER + INTRA:         -16.048
REMARK INTER:                 -11.300
REMARK INTRA:                  -4.749
REMARK UNBOUND:                -3.776
REMARK  Name = cpd19.pdb
REMARK  15 active torsions:
REMARK  status: ('A' for Active; 'I' for Inactive)
REMARK    1  A    between atoms: C_1  and  C_2
REMARK    2  A    between atoms: C_6  and  N_7
REMARK    3  A    between atoms: N_7  and  C_8
REMARK    4  A    between atoms: C_13  and  C_14
REMARK    5  A    between atoms: N_16  and  C_17
REMARK    6  A    between atoms: C_17  and  C_18
REMARK    7  A    between atoms: C_18  and  C_19
REMARK    8  A    between atoms: C_19  and  C_20
REMARK    9  A    between atoms: C_20  and  C_21
REMARK   10  A    between atoms: C_21  and  C_22
REMARK   11  A    between atoms: C_22  and  C_23
REMARK   12  A    between atoms: C_23  and  C_24
REMARK   13  A    between atoms: C_24  and  N_25
REMARK   14  A    between atoms: N_25  and  C_26
REMARK   15  A    between atoms: C_41  and  C_42
REMARK                            x       y       z     vdW  Elec       q    Type
REMARK                         _______ _______ _______ _____ _____    ______ ____
ROOT
ATOM      1  C   UNL A   1      45.256 -18.102 -36.052  0.00  0.00    -0.052 C 
ENDROOT
BRANCH   1   2
ATOM      2  C   UNL A   1      46.170 -17.754 -37.226  0.00  0.00    -0.037 C 
BRANCH   2   3
ATOM      3  C   UNL A   1      47.335 -18.731 -37.392  0.00  0.00    +0.012 C 
BRANCH   3   6
ATOM      4  C   UNL A   1      46.217 -20.559 -38.614  0.00  0.00    +0.246 C 
ATOM      5  O   UNL A   1      45.654 -20.963 -37.603  0.00  0.00    -0.270 OA
ATOM      6  N   UNL A   1      47.149 -19.532 -38.588  0.00  0.00    -0.311 N 
ATOM      7  H   UNL A   1      47.689 -19.346 -39.389  0.00  0.00    +0.000 HD
BRANCH   4  13
ATOM      8  C   UNL A   1      44.714 -20.583 -40.646  0.00  0.00    +0.044 A 
ATOM      9  C   UNL A   1      44.505 -20.992 -41.974  0.00  0.00    -0.040 A 
ATOM     10  C   UNL A   1      45.308 -21.966 -42.570  0.00  0.00    -0.060 A 
ATOM     11  C   UNL A   1      46.348 -22.546 -41.854  0.00  0.00    -0.061 A 
ATOM     12  C   UNL A   1      46.618 -22.115 -40.556  0.00  0.00    -0.048 A 
ATOM     13  C   UNL A   1      45.840 -21.105 -39.960  0.00  0.00    +0.058 A 
BRANCH   8  14
ATOM     14  N   UNL A   1      43.863 -19.617 -40.046  0.00  0.00    -0.314 N 
ATOM     15  H   UNL A   1      43.072 -19.994 -39.596  0.00  0.00    +0.000 HD
BRANCH  14  21
ATOM     16  C   UNL A   1      42.150 -15.261 -38.266  0.00  0.00    -0.039 C 
ATOM     17  C   UNL A   1      43.110 -16.069 -39.096  0.00  0.00    -0.046 A 
ATOM     18  C   UNL A   1      44.084 -15.389 -39.841  0.00  0.00    -0.058 A 
ATOM     19  C   UNL A   1      44.972 -16.088 -40.649  0.00  0.00    -0.060 A 
ATOM     20  C   UNL A   1      44.898 -17.478 -40.726  0.00  0.00    -0.040 A 
ATOM     21  C   UNL A   1      43.954 -18.200 -39.982  0.00  0.00    +0.035 A 
ATOM     22  C   UNL A   1      43.062 -17.485 -39.137  0.00  0.00    -0.026 A 
ATOM     23  C   UNL A   1      42.018 -18.234 -38.342  0.00  0.00    -0.038 C 
ENDBRANCH  14  21
ENDBRANCH   8  14
ENDBRANCH   4  13
ENDBRANCH   3   6
ENDBRANCH   2   3
ENDBRANCH   1   2
BRANCH   1  24
ATOM     24  C   UNL A   1      44.320 -16.968 -35.620  0.00  0.00    -0.053 C 
BRANCH  24  25
ATOM     25  C   UNL A   1      43.029 -17.531 -35.020  0.00  0.00    -0.053 C 
BRANCH  25  26
ATOM     26  C   UNL A   1      43.011 -17.562 -33.489  0.00  0.00    -0.052 C 
BRANCH  26  27
ATOM     27  C   UNL A   1      42.976 -18.982 -32.917  0.00  0.00    -0.037 C 
BRANCH  27  28
ATOM     28  C   UNL A   1      42.997 -20.054 -34.011  0.00  0.00    +0.009 C 
BRANCH  28  29
ATOM     29  N   UNL A   1      41.874 -20.986 -33.830  0.00  0.00    -0.343 N 
ATOM     30  H   UNL A   1      41.850 -21.678 -33.131  0.00  0.00    +0.000 HD
BRANCH  29  31
ATOM     31  C   UNL A   1      40.827 -20.784 -34.772  0.00  0.00    +0.041 A 
ATOM     32  C   UNL A   1      39.590 -20.274 -34.328  0.00  0.00    -0.005 A 
ATOM     33  C   UNL A   1      38.577 -20.115 -35.276  0.00  0.00    +0.047 A 
ATOM     34  N   UNL A   1      38.716 -20.464 -36.576  0.00  0.00    -0.251 NA
ATOM     35  C   UNL A   1      39.883 -20.964 -36.996  0.00  0.00    +0.074 A 
ATOM     36  C   UNL A   1      39.988 -21.299 -38.338  0.00  0.00    -0.017 A 
ATOM     37  C   UNL A   1      41.162 -21.831 -38.863  0.00  0.00    +0.043 A 
ATOM     38 CL   UNL A   1      41.253 -22.227 -40.534  0.00  0.00    -0.083 Cl
ATOM     39  C   UNL A   1      42.258 -22.044 -38.043  0.00  0.00    -0.043 A 
ATOM     40  C   UNL A   1      42.172 -21.714 -36.690  0.00  0.00    -0.049 A 
ATOM     41  C   UNL A   1      40.987 -21.162 -36.139  0.00  0.00    +0.022 A 
ATOM     42  C   UNL A   1      37.217 -19.584 -34.901  0.00  0.00    -0.010 C 
ATOM     43  C   UNL A   1      37.222 -18.772 -33.612  0.00  0.00    -0.047 C 
ATOM     44  C   UNL A   1      37.944 -19.545 -32.521  0.00  0.00    -0.049 C 
ATOM     45  C   UNL A   1      39.402 -19.786 -32.910  0.00  0.00    -0.024 C 
ENDBRANCH  29  31
ENDBRANCH  28  29
ENDBRANCH  27  28
ENDBRANCH  26  27
ENDBRANCH  25  26
ENDBRANCH  24  25
ENDBRANCH   1  24
TORSDOF 13
ENDMDL
MODEL 15
REMARK VINA RESULT:    -6.952     17.009     21.842
REMARK INTER + INTRA:         -16.012
REMARK INTER:                 -12.349
REMARK INTRA:                  -3.663
REMARK UNBOUND:                -3.776
REMARK  Name = cpd19.pdb
REMARK  15 active torsions:
REMARK  status: ('A' for Active; 'I' for Inactive)
REMARK    1  A    between atoms: C_1  and  C_2
REMARK    2  A    between atoms: C_6  and  N_7
REMARK    3  A    between atoms: N_7  and  C_8
REMARK    4  A    between atoms: C_13  and  C_14
REMARK    5  A    between atoms: N_16  and  C_17
REMARK    6  A    between atoms: C_17  and  C_18
REMARK    7  A    between atoms: C_18  and  C_19
REMARK    8  A    between atoms: C_19  and  C_20
REMARK    9  A    between atoms: C_20  and  C_21
REMARK   10  A    between atoms: C_21  and  C_22
REMARK   11  A    between atoms: C_22  and  C_23
REMARK   12  A    between atoms: C_23  and  C_24
REMARK   13  A    between atoms: C_24  and  N_25
REMARK   14  A    between atoms: N_25  and  C_26
REMARK   15  A    between atoms: C_41  and  C_42
REMARK                            x       y       z     vdW  Elec       q    Type
REMARK                         _______ _______ _______ _____ _____    ______ ____
ROOT
ATOM      1  C   UNL A   1      42.274 -18.184 -33.214  0.00  0.00    -0.052 C 
ENDROOT
BRANCH   1   2
ATOM      2  C   UNL A   1      41.469 -19.449 -33.509  0.00  0.00    -0.037 C 
BRANCH   2   3
ATOM      3  C   UNL A   1      42.344 -20.648 -33.876  0.00  0.00    +0.012 C 
BRANCH   3   6
ATOM      4  C   UNL A   1      43.865 -20.019 -35.713  0.00  0.00    +0.246 C 
ATOM      5  O   UNL A   1      43.080 -20.408 -36.569  0.00  0.00    -0.270 OA
ATOM      6  N   UNL A   1      43.637 -20.196 -34.357  0.00  0.00    -0.311 N 
ATOM      7  H   UNL A   1      44.359 -20.012 -33.714  0.00  0.00    +0.000 HD
BRANCH   4  13
ATOM      8  C   UNL A   1      45.835 -19.616 -37.244  0.00  0.00    +0.044 A 
ATOM      9  C   UNL A   1      46.856 -18.752 -37.677  0.00  0.00    -0.040 A 
ATOM     10  C   UNL A   1      47.201 -17.611 -36.951  0.00  0.00    -0.060 A 
ATOM     11  C   UNL A   1      46.525 -17.301 -35.778  0.00  0.00    -0.061 A 
ATOM     12  C   UNL A   1      45.467 -18.105 -35.356  0.00  0.00    -0.048 A 
ATOM     13  C   UNL A   1      45.083 -19.235 -36.103  0.00  0.00    +0.058 A 
BRANCH   8  14
ATOM     14  N   UNL A   1      45.524 -20.791 -37.979  0.00  0.00    -0.314 N 
ATOM     15  H   UNL A   1      45.127 -21.514 -37.441  0.00  0.00    +0.000 HD
BRANCH  14  21
ATOM     16  C   UNL A   1      44.220 -20.040 -42.755  0.00  0.00    -0.039 C 
ATOM     17  C   UNL A   1      45.043 -20.723 -41.696  0.00  0.00    -0.046 A 
ATOM     18  C   UNL A   1      45.956 -21.711 -42.094  0.00  0.00    -0.058 A 
ATOM     19  C   UNL A   1      46.714 -22.393 -41.150  0.00  0.00    -0.060 A 
ATOM     20  C   UNL A   1      46.569 -22.100 -39.795  0.00  0.00    -0.040 A 
ATOM     21  C   UNL A   1      45.685 -21.105 -39.355  0.00  0.00    +0.035 A 
ATOM     22  C   UNL A   1      44.928 -20.390 -40.323  0.00  0.00    -0.026 A 
ATOM     23  C   UNL A   1      43.947 -19.330 -39.877  0.00  0.00    -0.038 C 
ENDBRANCH  14  21
ENDBRANCH   8  14
ENDBRANCH   4  13
ENDBRANCH   3   6
ENDBRANCH   2   3
ENDBRANCH   1   2
BRANCH   1  24
ATOM     24  C   UNL A   1      42.070 -17.053 -34.228  0.00  0.00    -0.053 C 
BRANCH  24  25
ATOM     25  C   UNL A   1      40.886 -16.171 -33.823  0.00  0.00    -0.053 C 
BRANCH  25  26
ATOM     26  C   UNL A   1      39.809 -16.033 -34.902  0.00  0.00    -0.052 C 
BRANCH  26  27
ATOM     27  C   UNL A   1      38.896 -17.260 -35.003  0.00  0.00    -0.037 C 
BRANCH  27  28
ATOM     28  C   UNL A   1      38.610 -17.658 -36.453  0.00  0.00    +0.009 C 
BRANCH  28  29
ATOM     29  N   UNL A   1      37.671 -18.788 -36.494  0.00  0.00    -0.343 N 
ATOM     30  H   UNL A   1      36.693 -18.681 -36.533  0.00  0.00    +0.000 HD
BRANCH  29  31
ATOM     31  C   UNL A   1      38.321 -20.053 -36.471  0.00  0.00    +0.041 A 
ATOM     32  C   UNL A   1      38.216 -20.861 -35.319  0.00  0.00    -0.005 A 
ATOM     33  C   UNL A   1      38.890 -22.083 -35.322  0.00  0.00    +0.047 A 
ATOM     34  N   UNL A   1      39.664 -22.502 -36.350  0.00  0.00    -0.251 NA
ATOM     35  C   UNL A   1      39.780 -21.729 -37.436  0.00  0.00    +0.074 A 
ATOM     36  C   UNL A   1      40.573 -22.199 -38.472  0.00  0.00    -0.017 A 
ATOM     37  C   UNL A   1      40.756 -21.462 -39.637  0.00  0.00    +0.043 A 
ATOM     38 CL   UNL A   1      41.743 -22.083 -40.901  0.00  0.00    -0.083 Cl
ATOM     39  C   UNL A   1      40.146 -20.226 -39.783  0.00  0.00    -0.043 A 
ATOM     40  C   UNL A   1      39.344 -19.736 -38.752  0.00  0.00    -0.049 A 
ATOM     41  C   UNL A   1      39.139 -20.479 -37.560  0.00  0.00    +0.022 A 
ATOM     42  C   UNL A   1      38.846 -23.015 -34.138  0.00  0.00    -0.010 C 
ATOM     43  C   UNL A   1      37.642 -22.784 -33.234  0.00  0.00    -0.047 C 
ATOM     44  C   UNL A   1      37.524 -21.304 -32.905  0.00  0.00    -0.049 C 
ATOM     45  C   UNL A   1      37.298 -20.489 -34.177  0.00  0.00    -0.024 C 
ENDBRANCH  29  31
ENDBRANCH  28  29
ENDBRANCH  27  28
ENDBRANCH  26  27
ENDBRANCH  25  26
ENDBRANCH  24  25
ENDBRANCH   1  24
TORSDOF 13
ENDMDL
MODEL 16
REMARK VINA RESULT:    -6.951     17.721     22.382
REMARK INTER + INTRA:         -16.010
REMARK INTER:                 -11.780
REMARK INTRA:                  -4.230
REMARK UNBOUND:                -3.776
REMARK  Name = cpd19.pdb
REMARK  15 active torsions:
REMARK  status: ('A' for Active; 'I' for Inactive)
REMARK    1  A    between atoms: C_1  and  C_2
REMARK    2  A    between atoms: C_6  and  N_7
REMARK    3  A    between atoms: N_7  and  C_8
REMARK    4  A    between atoms: C_13  and  C_14
REMARK    5  A    between atoms: N_16  and  C_17
REMARK    6  A    between atoms: C_17  and  C_18
REMARK    7  A    between atoms: C_18  and  C_19
REMARK    8  A    between atoms: C_19  and  C_20
REMARK    9  A    between atoms: C_20  and  C_21
REMARK   10  A    between atoms: C_21  and  C_22
REMARK   11  A    between atoms: C_22  and  C_23
REMARK   12  A    between atoms: C_23  and  C_24
REMARK   13  A    between atoms: C_24  and  N_25
REMARK   14  A    between atoms: N_25  and  C_26
REMARK   15  A    between atoms: C_41  and  C_42
REMARK                            x       y       z     vdW  Elec       q    Type
REMARK                         _______ _______ _______ _____ _____    ______ ____
ROOT
ATOM      1  C   UNL A   1      42.606 -16.525 -39.326  0.00  0.00    -0.052 C 
ENDROOT
BRANCH   1   2
ATOM      2  C   UNL A   1      43.908 -16.039 -39.963  0.00  0.00    -0.037 C 
BRANCH   2   3
ATOM      3  C   UNL A   1      44.315 -16.851 -41.194  0.00  0.00    +0.012 C 
BRANCH   3   6
ATOM      4  C   UNL A   1      44.922 -19.195 -40.729  0.00  0.00    +0.246 C 
ATOM      5  O   UNL A   1      43.752 -19.560 -40.751  0.00  0.00    -0.270 OA
ATOM      6  N   UNL A   1      45.289 -17.862 -40.828  0.00  0.00    -0.311 N 
ATOM      7  H   UNL A   1      46.220 -17.599 -40.648  0.00  0.00    +0.000 HD
BRANCH   4  13
ATOM      8  C   UNL A   1      46.299 -20.913 -39.487  0.00  0.00    +0.044 A 
ATOM      9  C   UNL A   1      47.218 -21.975 -39.543  0.00  0.00    -0.040 A 
ATOM     10  C   UNL A   1      47.932 -22.261 -40.708  0.00  0.00    -0.060 A 
ATOM     11  C   UNL A   1      47.734 -21.497 -41.851  0.00  0.00    -0.061 A 
ATOM     12  C   UNL A   1      46.784 -20.476 -41.845  0.00  0.00    -0.048 A 
ATOM     13  C   UNL A   1      46.029 -20.207 -40.688  0.00  0.00    +0.058 A 
BRANCH   8  14
ATOM     14  N   UNL A   1      45.610 -20.616 -38.282  0.00  0.00    -0.314 N 
ATOM     15  H   UNL A   1      44.710 -21.011 -38.220  0.00  0.00    +0.000 HD
BRANCH  14  21
ATOM     16  C   UNL A   1      44.541 -18.806 -33.737  0.00  0.00    -0.039 C 
ATOM     17  C   UNL A   1      45.462 -18.972 -34.916  0.00  0.00    -0.046 A 
ATOM     18  C   UNL A   1      46.702 -18.319 -34.892  0.00  0.00    -0.058 A 
ATOM     19  C   UNL A   1      47.572 -18.414 -35.971  0.00  0.00    -0.060 A 
ATOM     20  C   UNL A   1      47.214 -19.162 -37.091  0.00  0.00    -0.040 A 
ATOM     21  C   UNL A   1      45.993 -19.848 -37.149  0.00  0.00    +0.035 A 
ATOM     22  C   UNL A   1      45.114 -19.771 -36.035  0.00  0.00    -0.026 A 
ATOM     23  C   UNL A   1      43.780 -20.480 -36.079  0.00  0.00    -0.038 C 
ENDBRANCH  14  21
ENDBRANCH   8  14
ENDBRANCH   4  13
ENDBRANCH   3   6
ENDBRANCH   2   3
ENDBRANCH   1   2
BRANCH   1  24
ATOM     24  C   UNL A   1      42.795 -17.554 -38.206  0.00  0.00    -0.053 C 
BRANCH  24  25
ATOM     25  C   UNL A   1      42.846 -16.865 -36.841  0.00  0.00    -0.053 C 
BRANCH  25  26
ATOM     26  C   UNL A   1      41.835 -17.406 -35.827  0.00  0.00    -0.052 C 
BRANCH  26  27
ATOM     27  C   UNL A   1      40.389 -17.346 -36.329  0.00  0.00    -0.037 C 
BRANCH  27  28
ATOM     28  C   UNL A   1      39.408 -18.027 -35.370  0.00  0.00    +0.009 C 
BRANCH  28  29
ATOM     29  N   UNL A   1      38.625 -19.047 -36.083  0.00  0.00    -0.343 N 
ATOM     30  H   UNL A   1      37.719 -18.888 -36.435  0.00  0.00    +0.000 HD
BRANCH  29  31
ATOM     31  C   UNL A   1      39.312 -20.286 -36.211  0.00  0.00    +0.041 A 
ATOM     32  C   UNL A   1      39.514 -21.083 -35.066  0.00  0.00    -0.005 A 
ATOM     33  C   UNL A   1      40.216 -22.279 -35.224  0.00  0.00    +0.047 A 
ATOM     34  N   UNL A   1      40.740 -22.681 -36.406  0.00  0.00    -0.251 NA
ATOM     35  C   UNL A   1      40.565 -21.918 -37.491  0.00  0.00    +0.074 A 
ATOM     36  C   UNL A   1      41.107 -22.370 -38.683  0.00  0.00    -0.017 A 
ATOM     37  C   UNL A   1      40.980 -21.640 -39.861  0.00  0.00    +0.043 A 
ATOM     38 CL   UNL A   1      41.662 -22.239 -41.322  0.00  0.00    -0.083 Cl
ATOM     39  C   UNL A   1      40.304 -20.430 -39.861  0.00  0.00    -0.043 A 
ATOM     40  C   UNL A   1      39.752 -19.958 -38.671  0.00  0.00    -0.049 A 
ATOM     41  C   UNL A   1      39.864 -20.694 -37.462  0.00  0.00    +0.022 A 
ATOM     42  C   UNL A   1      40.491 -23.198 -34.062  0.00  0.00    -0.010 C 
ATOM     43  C   UNL A   1      39.527 -23.001 -32.898  0.00  0.00    -0.047 C 
ATOM     44  C   UNL A   1      39.432 -21.523 -32.554  0.00  0.00    -0.049 C 
ATOM     45  C   UNL A   1      38.880 -20.732 -33.739  0.00  0.00    -0.024 C 
ENDBRANCH  29  31
ENDBRANCH  28  29
ENDBRANCH  27  28
ENDBRANCH  26  27
ENDBRANCH  25  26
ENDBRANCH  24  25
ENDBRANCH   1  24
TORSDOF 13
ENDMDL
MODEL 17
REMARK VINA RESULT:    -6.877     17.068     21.598
REMARK INTER + INTRA:         -15.880
REMARK INTER:                 -11.837
REMARK INTRA:                  -4.043
REMARK UNBOUND:                -3.776
REMARK  Name = cpd19.pdb
REMARK  15 active torsions:
REMARK  status: ('A' for Active; 'I' for Inactive)
REMARK    1  A    between atoms: C_1  and  C_2
REMARK    2  A    between atoms: C_6  and  N_7
REMARK    3  A    between atoms: N_7  and  C_8
REMARK    4  A    between atoms: C_13  and  C_14
REMARK    5  A    between atoms: N_16  and  C_17
REMARK    6  A    between atoms: C_17  and  C_18
REMARK    7  A    between atoms: C_18  and  C_19
REMARK    8  A    between atoms: C_19  and  C_20
REMARK    9  A    between atoms: C_20  and  C_21
REMARK   10  A    between atoms: C_21  and  C_22
REMARK   11  A    between atoms: C_22  and  C_23
REMARK   12  A    between atoms: C_23  and  C_24
REMARK   13  A    between atoms: C_24  and  N_25
REMARK   14  A    between atoms: N_25  and  C_26
REMARK   15  A    between atoms: C_41  and  C_42
REMARK                            x       y       z     vdW  Elec       q    Type
REMARK                         _______ _______ _______ _____ _____    ______ ____
ROOT
ATOM      1  C   UNL A   1      46.297 -17.149 -35.857  0.00  0.00    -0.052 C 
ENDROOT
BRANCH   1   2
ATOM      2  C   UNL A   1      46.009 -17.514 -37.313  0.00  0.00    -0.037 C 
BRANCH   2   3
ATOM      3  C   UNL A   1      47.140 -18.310 -37.969  0.00  0.00    +0.012 C 
BRANCH   3   6
ATOM      4  C   UNL A   1      46.183 -20.329 -39.011  0.00  0.00    +0.246 C 
ATOM      5  O   UNL A   1      46.350 -20.998 -37.997  0.00  0.00    -0.270 OA
ATOM      6  N   UNL A   1      46.641 -19.026 -39.128  0.00  0.00    -0.311 N 
ATOM      7  H   UNL A   1      46.626 -18.582 -40.006  0.00  0.00    +0.000 HD
BRANCH   4  13
ATOM      8  C   UNL A   1      44.005 -21.187 -39.966  0.00  0.00    +0.044 A 
ATOM      9  C   UNL A   1      43.247 -21.520 -41.101  0.00  0.00    -0.040 A 
ATOM     10  C   UNL A   1      43.838 -21.654 -42.358  0.00  0.00    -0.060 A 
ATOM     11  C   UNL A   1      45.203 -21.446 -42.512  0.00  0.00    -0.061 A 
ATOM     12  C   UNL A   1      45.970 -21.053 -41.416  0.00  0.00    -0.048 A 
ATOM     13  C   UNL A   1      45.377 -20.875 -40.153  0.00  0.00    +0.058 A 
BRANCH   8  14
ATOM     14  N   UNL A   1      43.391 -21.091 -38.689  0.00  0.00    -0.314 N 
ATOM     15  H   UNL A   1      44.021 -21.107 -37.932  0.00  0.00    +0.000 HD
BRANCH  14  21
ATOM     16  C   UNL A   1      39.573 -18.254 -37.122  0.00  0.00    -0.039 C 
ATOM     17  C   UNL A   1      40.157 -19.573 -37.552  0.00  0.00    -0.046 A 
ATOM     18  C   UNL A   1      39.329 -20.705 -37.540  0.00  0.00    -0.058 A 
ATOM     19  C   UNL A   1      39.831 -21.951 -37.896  0.00  0.00    -0.060 A 
ATOM     20  C   UNL A   1      41.168 -22.084 -38.267  0.00  0.00    -0.040 A 
ATOM     21  C   UNL A   1      42.025 -20.976 -38.313  0.00  0.00    +0.035 A 
ATOM     22  C   UNL A   1      41.505 -19.698 -37.973  0.00  0.00    -0.026 A 
ATOM     23  C   UNL A   1      42.412 -18.488 -37.989  0.00  0.00    -0.038 C 
ENDBRANCH  14  21
ENDBRANCH   8  14
ENDBRANCH   4  13
ENDBRANCH   3   6
ENDBRANCH   2   3
ENDBRANCH   1   2
BRANCH   1  24
ATOM     24  C   UNL A   1      46.458 -18.353 -34.923  0.00  0.00    -0.053 C 
BRANCH  24  25
ATOM     25  C   UNL A   1      45.310 -19.347 -35.118  0.00  0.00    -0.053 C 
BRANCH  25  26
ATOM     26  C   UNL A   1      43.954 -18.844 -34.617  0.00  0.00    -0.052 C 
BRANCH  26  27
ATOM     27  C   UNL A   1      43.731 -19.102 -33.123  0.00  0.00    -0.037 C 
BRANCH  27  28
ATOM     28  C   UNL A   1      42.263 -18.946 -32.716  0.00  0.00    +0.009 C 
BRANCH  28  29
ATOM     29  N   UNL A   1      41.413 -18.840 -33.911  0.00  0.00    -0.343 N 
ATOM     30  H   UNL A   1      41.746 -18.553 -34.792  0.00  0.00    +0.000 HD
BRANCH  29  31
ATOM     31  C   UNL A   1      40.057 -19.195 -33.663  0.00  0.00    +0.041 A 
ATOM     32  C   UNL A   1      39.158 -18.206 -33.212  0.00  0.00    -0.005 A 
ATOM     33  C   UNL A   1      37.843 -18.597 -32.952  0.00  0.00    +0.047 A 
ATOM     34  N   UNL A   1      37.411 -19.874 -33.071  0.00  0.00    -0.251 NA
ATOM     35  C   UNL A   1      38.267 -20.817 -33.481  0.00  0.00    +0.074 A 
ATOM     36  C   UNL A   1      37.782 -22.110 -33.600  0.00  0.00    -0.017 A 
ATOM     37  C   UNL A   1      38.601 -23.156 -34.014  0.00  0.00    +0.043 A 
ATOM     38 CL   UNL A   1      37.960 -24.746 -34.155  0.00  0.00    -0.083 Cl
ATOM     39  C   UNL A   1      39.934 -22.922 -34.312  0.00  0.00    -0.043 A 
ATOM     40  C   UNL A   1      40.440 -21.628 -34.198  0.00  0.00    -0.049 A 
ATOM     41  C   UNL A   1      39.618 -20.547 -33.787  0.00  0.00    +0.022 A 
ATOM     42  C   UNL A   1      36.808 -17.618 -32.462  0.00  0.00    -0.010 C 
ATOM     43  C   UNL A   1      37.147 -16.169 -32.787  0.00  0.00    -0.047 C 
ATOM     44  C   UNL A   1      38.578 -15.870 -32.369  0.00  0.00    -0.049 C 
ATOM     45  C   UNL A   1      39.557 -16.750 -33.144  0.00  0.00    -0.024 C 
ENDBRANCH  29  31
ENDBRANCH  28  29
ENDBRANCH  27  28
ENDBRANCH  26  27
ENDBRANCH  25  26
ENDBRANCH  24  25
ENDBRANCH   1  24
TORSDOF 13
ENDMDL
MODEL 18
REMARK VINA RESULT:    -6.785     18.219     22.591
REMARK INTER + INTRA:         -15.717
REMARK INTER:                 -11.619
REMARK INTRA:                  -4.098
REMARK UNBOUND:                -3.776
REMARK  Name = cpd19.pdb
REMARK  15 active torsions:
REMARK  status: ('A' for Active; 'I' for Inactive)
REMARK    1  A    between atoms: C_1  and  C_2
REMARK    2  A    between atoms: C_6  and  N_7
REMARK    3  A    between atoms: N_7  and  C_8
REMARK    4  A    between atoms: C_13  and  C_14
REMARK    5  A    between atoms: N_16  and  C_17
REMARK    6  A    between atoms: C_17  and  C_18
REMARK    7  A    between atoms: C_18  and  C_19
REMARK    8  A    between atoms: C_19  and  C_20
REMARK    9  A    between atoms: C_20  and  C_21
REMARK   10  A    between atoms: C_21  and  C_22
REMARK   11  A    between atoms: C_22  and  C_23
REMARK   12  A    between atoms: C_23  and  C_24
REMARK   13  A    between atoms: C_24  and  N_25
REMARK   14  A    between atoms: N_25  and  C_26
REMARK   15  A    between atoms: C_41  and  C_42
REMARK                            x       y       z     vdW  Elec       q    Type
REMARK                         _______ _______ _______ _____ _____    ______ ____
ROOT
ATOM      1  C   UNL A   1      43.771 -19.598 -36.458  0.00  0.00    -0.052 C 
ENDROOT
BRANCH   1   2
ATOM      2  C   UNL A   1      44.504 -19.563 -35.118  0.00  0.00    -0.037 C 
BRANCH   2   3
ATOM      3  C   UNL A   1      45.588 -18.484 -35.054  0.00  0.00    +0.012 C 
BRANCH   3   6
ATOM      4  C   UNL A   1      45.783 -16.840 -36.882  0.00  0.00    +0.246 C 
ATOM      5  O   UNL A   1      45.064 -16.032 -36.305  0.00  0.00    -0.270 OA
ATOM      6  N   UNL A   1      46.009 -18.118 -36.393  0.00  0.00    -0.311 N 
ATOM      7  H   UNL A   1      46.461 -18.783 -36.962  0.00  0.00    +0.000 HD
BRANCH   4  13
ATOM      8  C   UNL A   1      46.244 -17.055 -39.358  0.00  0.00    +0.044 A 
ATOM      9  C   UNL A   1      46.842 -16.522 -40.513  0.00  0.00    -0.040 A 
ATOM     10  C   UNL A   1      47.782 -15.493 -40.438  0.00  0.00    -0.060 A 
ATOM     11  C   UNL A   1      48.138 -14.963 -39.204  0.00  0.00    -0.061 A 
ATOM     12  C   UNL A   1      47.516 -15.428 -38.046  0.00  0.00    -0.048 A 
ATOM     13  C   UNL A   1      46.537 -16.437 -38.115  0.00  0.00    +0.058 A 
BRANCH   8  14
ATOM     14  N   UNL A   1      45.317 -18.126 -39.453  0.00  0.00    -0.314 N 
ATOM     15  H   UNL A   1      44.647 -18.150 -38.731  0.00  0.00    +0.000 HD
BRANCH  14  21
ATOM     16  C   UNL A   1      46.372 -22.801 -40.904  0.00  0.00    -0.039 C 
ATOM     17  C   UNL A   1      45.704 -21.468 -41.108  0.00  0.00    -0.046 A 
ATOM     18  C   UNL A   1      44.973 -21.260 -42.286  0.00  0.00    -0.058 A 
ATOM     19  C   UNL A   1      44.366 -20.035 -42.534  0.00  0.00    -0.060 A 
ATOM     20  C   UNL A   1      44.483 -18.999 -41.609  0.00  0.00    -0.040 A 
ATOM     21  C   UNL A   1      45.187 -19.170 -40.409  0.00  0.00    +0.035 A 
ATOM     22  C   UNL A   1      45.786 -20.431 -40.144  0.00  0.00    -0.026 A 
ATOM     23  C   UNL A   1      46.572 -20.637 -38.870  0.00  0.00    -0.038 C 
ENDBRANCH  14  21
ENDBRANCH   8  14
ENDBRANCH   4  13
ENDBRANCH   3   6
ENDBRANCH   2   3
ENDBRANCH   1   2
BRANCH   1  24
ATOM     24  C   UNL A   1      43.181 -20.966 -36.820  0.00  0.00    -0.053 C 
BRANCH  24  25
ATOM     25  C   UNL A   1      42.583 -20.941 -38.229  0.00  0.00    -0.053 C 
BRANCH  25  26
ATOM     26  C   UNL A   1      41.843 -19.646 -38.573  0.00  0.00    -0.052 C 
BRANCH  26  27
ATOM     27  C   UNL A   1      40.326 -19.831 -38.688  0.00  0.00    -0.037 C 
BRANCH  27  28
ATOM     28  C   UNL A   1      39.785 -20.851 -37.682  0.00  0.00    +0.009 C 
BRANCH  28  29
ATOM     29  N   UNL A   1      39.071 -20.164 -36.596  0.00  0.00    -0.343 N 
ATOM     30  H   UNL A   1      38.200 -19.721 -36.714  0.00  0.00    +0.000 HD
BRANCH  29  31
ATOM     31  C   UNL A   1      39.770 -20.205 -35.358  0.00  0.00    +0.041 A 
ATOM     32  C   UNL A   1      39.645 -21.342 -34.534  0.00  0.00    -0.005 A 
ATOM     33  C   UNL A   1      40.323 -21.336 -33.314  0.00  0.00    +0.047 A 
ATOM     34  N   UNL A   1      41.051 -20.282 -32.875  0.00  0.00    -0.251 NA
ATOM     35  C   UNL A   1      41.156 -19.195 -33.647  0.00  0.00    +0.074 A 
ATOM     36  C   UNL A   1      41.919 -18.142 -33.165  0.00  0.00    -0.017 A 
ATOM     37  C   UNL A   1      42.079 -16.969 -33.897  0.00  0.00    +0.043 A 
ATOM     38 CL   UNL A   1      43.039 -15.688 -33.267  0.00  0.00    -0.083 Cl
ATOM     39  C   UNL A   1      41.467 -16.828 -35.132  0.00  0.00    -0.043 A 
ATOM     40  C   UNL A   1      40.695 -17.877 -35.633  0.00  0.00    -0.049 A 
ATOM     41  C   UNL A   1      40.528 -19.084 -34.905  0.00  0.00    +0.022 A 
ATOM     42  C   UNL A   1      40.250 -22.500 -32.359  0.00  0.00    -0.010 C 
ATOM     43  C   UNL A   1      39.861 -23.809 -33.035  0.00  0.00    -0.047 C 
ATOM     44  C   UNL A   1      38.629 -23.594 -33.900  0.00  0.00    -0.049 C 
ATOM     45  C   UNL A   1      38.921 -22.583 -35.007  0.00  0.00    -0.024 C 
ENDBRANCH  29  31
ENDBRANCH  28  29
ENDBRANCH  27  28
ENDBRANCH  26  27
ENDBRANCH  25  26
ENDBRANCH  24  25
ENDBRANCH   1  24
TORSDOF 13
ENDMDL
MODEL 19
REMARK VINA RESULT:    -6.776      3.406      7.511
REMARK INTER + INTRA:         -15.701
REMARK INTER:                 -11.154
REMARK INTRA:                  -4.547
REMARK UNBOUND:                -3.776
REMARK  Name = cpd19.pdb
REMARK  15 active torsions:
REMARK  status: ('A' for Active; 'I' for Inactive)
REMARK    1  A    between atoms: C_1  and  C_2
REMARK    2  A    between atoms: C_6  and  N_7
REMARK    3  A    between atoms: N_7  and  C_8
REMARK    4  A    between atoms: C_13  and  C_14
REMARK    5  A    between atoms: N_16  and  C_17
REMARK    6  A    between atoms: C_17  and  C_18
REMARK    7  A    between atoms: C_18  and  C_19
REMARK    8  A    between atoms: C_19  and  C_20
REMARK    9  A    between atoms: C_20  and  C_21
REMARK   10  A    between atoms: C_21  and  C_22
REMARK   11  A    between atoms: C_22  and  C_23
REMARK   12  A    between atoms: C_23  and  C_24
REMARK   13  A    between atoms: C_24  and  N_25
REMARK   14  A    between atoms: N_25  and  C_26
REMARK   15  A    between atoms: C_41  and  C_42
REMARK                            x       y       z     vdW  Elec       q    Type
REMARK                         _______ _______ _______ _____ _____    ______ ____
ROOT
ATOM      1  C   UNL A   1      29.986 -37.163 -30.820  0.00  0.00    -0.052 C 
ENDROOT
BRANCH   1   2
ATOM      2  C   UNL A   1      29.533 -37.814 -29.514  0.00  0.00    -0.037 C 
BRANCH   2   3
ATOM      3  C   UNL A   1      29.921 -39.291 -29.411  0.00  0.00    +0.012 C 
BRANCH   3   6
ATOM      4  C   UNL A   1      32.004 -40.530 -29.866  0.00  0.00    +0.246 C 
ATOM      5  O   UNL A   1      31.395 -41.519 -30.257  0.00  0.00    -0.270 OA
ATOM      6  N   UNL A   1      31.363 -39.424 -29.327  0.00  0.00    -0.311 N 
ATOM      7  H   UNL A   1      31.893 -38.723 -28.884  0.00  0.00    +0.000 HD
BRANCH   4  13
ATOM      8  C   UNL A   1      34.027 -40.015 -31.291  0.00  0.00    +0.044 A 
ATOM      9  C   UNL A   1      35.409 -39.767 -31.360  0.00  0.00    -0.040 A 
ATOM     10  C   UNL A   1      36.252 -40.032 -30.278  0.00  0.00    -0.060 A 
ATOM     11  C   UNL A   1      35.729 -40.541 -29.097  0.00  0.00    -0.061 A 
ATOM     12  C   UNL A   1      34.354 -40.739 -28.977  0.00  0.00    -0.048 A 
ATOM     13  C   UNL A   1      33.491 -40.436 -30.046  0.00  0.00    +0.058 A 
BRANCH   8  14
ATOM     14  N   UNL A   1      33.193 -39.772 -32.414  0.00  0.00    -0.314 N 
ATOM     15  H   UNL A   1      32.686 -38.929 -32.370  0.00  0.00    +0.000 HD
BRANCH  14  21
ATOM     16  C   UNL A   1      31.144 -40.164 -36.966  0.00  0.00    -0.039 C 
ATOM     17  C   UNL A   1      31.959 -40.714 -35.826  0.00  0.00    -0.046 A 
ATOM     18  C   UNL A   1      32.461 -42.019 -35.933  0.00  0.00    -0.058 A 
ATOM     19  C   UNL A   1      33.190 -42.583 -34.893  0.00  0.00    -0.060 A 
ATOM     20  C   UNL A   1      33.427 -41.850 -33.731  0.00  0.00    -0.040 A 
ATOM     21  C   UNL A   1      32.962 -40.535 -33.590  0.00  0.00    +0.035 A 
ATOM     22  C   UNL A   1      32.237 -39.951 -34.664  0.00  0.00    -0.026 A 
ATOM     23  C   UNL A   1      31.702 -38.544 -34.532  0.00  0.00    -0.038 C 
ENDBRANCH  14  21
ENDBRANCH   8  14
ENDBRANCH   4  13
ENDBRANCH   3   6
ENDBRANCH   2   3
ENDBRANCH   1   2
BRANCH   1  24
ATOM     24  C   UNL A   1      29.839 -35.637 -30.850  0.00  0.00    -0.053 C 
BRANCH  24  25
ATOM     25  C   UNL A   1      31.035 -34.992 -31.554  0.00  0.00    -0.053 C 
BRANCH  25  26
ATOM     26  C   UNL A   1      31.985 -35.992 -32.219  0.00  0.00    -0.052 C 
BRANCH  26  27
ATOM     27  C   UNL A   1      33.222 -35.329 -32.834  0.00  0.00    -0.037 C 
BRANCH  27  28
ATOM     28  C   UNL A   1      34.528 -35.963 -32.346  0.00  0.00    +0.009 C 
BRANCH  28  29
ATOM     29  N   UNL A   1      35.117 -35.150 -31.271  0.00  0.00    -0.343 N 
ATOM     30  H   UNL A   1      35.037 -34.170 -31.226  0.00  0.00    +0.000 HD
BRANCH  29  31
ATOM     31  C   UNL A   1      35.814 -35.927 -30.305  0.00  0.00    +0.041 A 
ATOM     32  C   UNL A   1      35.150 -36.312 -29.122  0.00  0.00    -0.005 A 
ATOM     33  C   UNL A   1      35.874 -37.050 -28.184  0.00  0.00    +0.047 A 
ATOM     34  N   UNL A   1      37.179 -37.371 -28.340  0.00  0.00    -0.251 NA
ATOM     35  C   UNL A   1      37.816 -36.992 -29.453  0.00  0.00    +0.074 A 
ATOM     36  C   UNL A   1      39.150 -37.350 -29.579  0.00  0.00    -0.017 A 
ATOM     37  C   UNL A   1      39.894 -36.994 -30.699  0.00  0.00    +0.043 A 
ATOM     38 CL   UNL A   1      41.544 -37.463 -30.820  0.00  0.00    -0.083 Cl
ATOM     39  C   UNL A   1      39.309 -36.260 -31.720  0.00  0.00    -0.043 A 
ATOM     40  C   UNL A   1      37.969 -35.890 -31.611  0.00  0.00    -0.049 A 
ATOM     41  C   UNL A   1      37.192 -36.253 -30.480  0.00  0.00    +0.022 A 
ATOM     42  C   UNL A   1      35.258 -37.504 -26.886  0.00  0.00    -0.010 C 
ATOM     43  C   UNL A   1      33.736 -37.568 -26.931  0.00  0.00    -0.047 C 
ATOM     44  C   UNL A   1      33.184 -36.270 -27.497  0.00  0.00    -0.049 C 
ATOM     45  C   UNL A   1      33.672 -36.060 -28.930  0.00  0.00    -0.024 C 
ENDBRANCH  29  31
ENDBRANCH  28  29
ENDBRANCH  27  28
ENDBRANCH  26  27
ENDBRANCH  25  26
ENDBRANCH  24  25
ENDBRANCH   1  24
TORSDOF 13
ENDMDL
MODEL 20
REMARK VINA RESULT:    -6.716     19.826     24.388
REMARK INTER + INTRA:         -15.596
REMARK INTER:                 -10.842
REMARK INTRA:                  -4.754
REMARK UNBOUND:                -3.776
REMARK  Name = cpd19.pdb
REMARK  15 active torsions:
REMARK  status: ('A' for Active; 'I' for Inactive)
REMARK    1  A    between atoms: C_1  and  C_2
REMARK    2  A    between atoms: C_6  and  N_7
REMARK    3  A    between atoms: N_7  and  C_8
REMARK    4  A    between atoms: C_13  and  C_14
REMARK    5  A    between atoms: N_16  and  C_17
REMARK    6  A    between atoms: C_17  and  C_18
REMARK    7  A    between atoms: C_18  and  C_19
REMARK    8  A    between atoms: C_19  and  C_20
REMARK    9  A    between atoms: C_20  and  C_21
REMARK   10  A    between atoms: C_21  and  C_22
REMARK   11  A    between atoms: C_22  and  C_23
REMARK   12  A    between atoms: C_23  and  C_24
REMARK   13  A    between atoms: C_24  and  N_25
REMARK   14  A    between atoms: N_25  and  C_26
REMARK   15  A    between atoms: C_41  and  C_42
REMARK                            x       y       z     vdW  Elec       q    Type
REMARK                         _______ _______ _______ _____ _____    ______ ____
ROOT
ATOM      1  C   UNL A   1      42.703 -14.497 -38.102  0.00  0.00    -0.052 C 
ENDROOT
BRANCH   1   2
ATOM      2  C   UNL A   1      41.734 -14.667 -36.933  0.00  0.00    -0.037 C 
BRANCH   2   3
ATOM      3  C   UNL A   1      42.183 -15.730 -35.928  0.00  0.00    +0.012 C 
BRANCH   3   6
ATOM      4  C   UNL A   1      44.345 -16.858 -35.562  0.00  0.00    +0.246 C 
ATOM      5  O   UNL A   1      44.389 -16.512 -34.387  0.00  0.00    -0.270 OA
ATOM      6  N   UNL A   1      43.352 -16.430 -36.429  0.00  0.00    -0.311 N 
ATOM      7  H   UNL A   1      43.440 -16.602 -37.394  0.00  0.00    +0.000 HD
BRANCH   4  13
ATOM      8  C   UNL A   1      45.216 -19.225 -35.736  0.00  0.00    +0.044 A 
ATOM      9  C   UNL A   1      46.043 -20.149 -36.397  0.00  0.00    -0.040 A 
ATOM     10  C   UNL A   1      47.028 -19.733 -37.295  0.00  0.00    -0.060 A 
ATOM     11  C   UNL A   1      47.200 -18.380 -37.562  0.00  0.00    -0.061 A 
ATOM     12  C   UNL A   1      46.353 -17.445 -36.969  0.00  0.00    -0.048 A 
ATOM     13  C   UNL A   1      45.331 -17.857 -36.094  0.00  0.00    +0.058 A 
BRANCH   8  14
ATOM     14  N   UNL A   1      44.244 -19.667 -34.799  0.00  0.00    -0.314 N 
ATOM     15  H   UNL A   1      44.527 -19.602 -33.858  0.00  0.00    +0.000 HD
BRANCH  14  21
ATOM     16  C   UNL A   1      39.480 -19.984 -33.292  0.00  0.00    -0.039 C 
ATOM     17  C   UNL A   1      40.597 -20.329 -34.239  0.00  0.00    -0.046 A 
ATOM     18  C   UNL A   1      40.328 -21.210 -35.296  0.00  0.00    -0.058 A 
ATOM     19  C   UNL A   1      41.335 -21.585 -36.177  0.00  0.00    -0.060 A 
ATOM     20  C   UNL A   1      42.626 -21.086 -36.013  0.00  0.00    -0.040 A 
ATOM     21  C   UNL A   1      42.934 -20.187 -34.983  0.00  0.00    +0.035 A 
ATOM     22  C   UNL A   1      41.899 -19.784 -34.097  0.00  0.00    -0.026 A 
ATOM     23  C   UNL A   1      42.206 -18.835 -32.962  0.00  0.00    -0.038 C 
ENDBRANCH  14  21
ENDBRANCH   8  14
ENDBRANCH   4  13
ENDBRANCH   3   6
ENDBRANCH   2   3
ENDBRANCH   1   2
BRANCH   1  24
ATOM     24  C   UNL A   1      42.027 -14.207 -39.447  0.00  0.00    -0.053 C 
BRANCH  24  25
ATOM     25  C   UNL A   1      43.035 -13.632 -40.445  0.00  0.00    -0.053 C 
BRANCH  25  26
ATOM     26  C   UNL A   1      43.198 -14.464 -41.720  0.00  0.00    -0.052 C 
BRANCH  26  27
ATOM     27  C   UNL A   1      43.162 -15.974 -41.463  0.00  0.00    -0.037 C 
BRANCH  27  28
ATOM     28  C   UNL A   1      44.523 -16.525 -41.028  0.00  0.00    +0.009 C 
BRANCH  28  29
ATOM     29  N   UNL A   1      44.383 -17.307 -39.791  0.00  0.00    -0.343 N 
ATOM     30  H   UNL A   1      44.524 -16.932 -38.892  0.00  0.00    +0.000 HD
BRANCH  29  31
ATOM     31  C   UNL A   1      44.021 -18.663 -40.028  0.00  0.00    +0.041 A 
ATOM     32  C   UNL A   1      42.730 -19.103 -39.674  0.00  0.00    -0.005 A 
ATOM     33  C   UNL A   1      42.420 -20.447 -39.896  0.00  0.00    +0.047 A 
ATOM     34  N   UNL A   1      43.308 -21.341 -40.389  0.00  0.00    -0.251 NA
ATOM     35  C   UNL A   1      44.540 -20.930 -40.708  0.00  0.00    +0.074 A 
ATOM     36  C   UNL A   1      45.416 -21.875 -41.219  0.00  0.00    -0.017 A 
ATOM     37  C   UNL A   1      46.719 -21.539 -41.573  0.00  0.00    +0.043 A 
ATOM     38 CL   UNL A   1      47.772 -22.740 -42.211  0.00  0.00    -0.083 Cl
ATOM     39  C   UNL A   1      47.172 -20.239 -41.414  0.00  0.00    -0.043 A 
ATOM     40  C   UNL A   1      46.306 -19.274 -40.900  0.00  0.00    -0.049 A 
ATOM     41  C   UNL A   1      44.971 -19.596 -40.542  0.00  0.00    +0.022 A 
ATOM     42  C   UNL A   1      41.069 -21.017 -39.547  0.00  0.00    -0.010 C 
ATOM     43  C   UNL A   1      39.973 -19.962 -39.463  0.00  0.00    -0.047 C 
ATOM     44  C   UNL A   1      40.439 -18.806 -38.592  0.00  0.00    -0.049 C 
ATOM     45  C   UNL A   1      41.668 -18.135 -39.203  0.00  0.00    -0.024 C 
ENDBRANCH  29  31
ENDBRANCH  28  29
ENDBRANCH  27  28
ENDBRANCH  26  27
ENDBRANCH  25  26
ENDBRANCH  24  25
ENDBRANCH   1  24
TORSDOF 13
ENDMDL
