REMARK  Name = cpd19.pdb
REMARK  15 active torsions:
REMARK  status: ('A' for Active; 'I' for Inactive)
REMARK    1  A    between atoms: C_1  and  C_2
REMARK    2  A    between atoms: C_6  and  N_7
REMARK    3  A    between atoms: N_7  and  C_8
REMARK    4  A    between atoms: C_13  and  C_14
REMARK    5  A    between atoms: N_16  and  C_17
REMARK    6  A    between atoms: C_17  and  C_18
REMARK    7  A    between atoms: C_18  and  C_19
REMARK    8  A    between atoms: C_19  and  C_20
REMARK    9  A    between atoms: C_20  and  C_21
REMARK   10  A    between atoms: C_21  and  C_22
REMARK   11  A    between atoms: C_22  and  C_23
REMARK   12  A    between atoms: C_23  and  C_24
REMARK   13  A    between atoms: C_24  and  N_25
REMARK   14  A    between atoms: N_25  and  C_26
REMARK   15  A    between atoms: C_41  and  C_42
REMARK                            x       y       z     vdW  Elec       q    Type
REMARK                         _______ _______ _______ _____ _____    ______ ____
ROOT
ATOM      1  C   UNL A   1      -5.966  -2.152   0.910  0.00  0.00    -0.052 C 
ENDROOT
BRANCH   1   2
ATOM      2  C   UNL A   1      -4.954  -3.280   0.715  0.00  0.00    -0.037 C 
BRANCH   2   3
ATOM      3  C   UNL A   1      -4.419  -3.368  -0.716  0.00  0.00    +0.012 C 
BRANCH   3   6
ATOM      4  C   UNL A   1      -1.957  -3.239  -0.755  0.00  0.00    +0.246 C 
ATOM      5  O   UNL A   1      -1.969  -2.032  -0.968  0.00  0.00    -0.270 OA
ATOM      6  N   UNL A   1      -3.114  -4.002  -0.724  0.00  0.00    -0.311 N 
ATOM      7  H   UNL A   1      -3.049  -4.984  -0.707  0.00  0.00    +0.000 HD
BRANCH   4  13
ATOM      8  C   UNL A   1       0.428  -3.189   0.082  0.00  0.00    +0.044 A 
ATOM      9  C   UNL A   1       1.544  -3.900   0.555  0.00  0.00    -0.040 A 
ATOM     10  C   UNL A   1       1.626  -5.289   0.438  0.00  0.00    -0.060 A 
ATOM     11  C   UNL A   1       0.586  -6.001  -0.146  0.00  0.00    -0.061 A 
ATOM     12  C   UNL A   1      -0.561  -5.330  -0.568  0.00  0.00    -0.048 A 
ATOM     13  C   UNL A   1      -0.671  -3.935  -0.417  0.00  0.00    +0.058 A 
BRANCH   8  14
ATOM     14  N   UNL A   1       0.380  -1.773   0.178  0.00  0.00    -0.314 N 
ATOM     15  H   UNL A   1      -0.504  -1.411   0.417  0.00  0.00    +0.000 HD
BRANCH  14  21
ATOM     16  C   UNL A   1       1.826   3.015   0.422  0.00  0.00    -0.039 C 
ATOM     17  C   UNL A   1       2.088   1.564   0.120  0.00  0.00    -0.046 A 
ATOM     18  C   UNL A   1       3.343   1.204  -0.390  0.00  0.00    -0.058 A 
ATOM     19  C   UNL A   1       3.621  -0.118  -0.716  0.00  0.00    -0.060 A 
ATOM     20  C   UNL A   1       2.647  -1.099  -0.538  0.00  0.00    -0.040 A 
ATOM     21  C   UNL A   1       1.386  -0.787  -0.011  0.00  0.00    +0.035 A 
ATOM     22  C   UNL A   1       1.111   0.561   0.345  0.00  0.00    -0.026 A 
ATOM     23  C   UNL A   1      -0.248   0.932   0.892  0.00  0.00    -0.038 C 
ENDBRANCH  14  21
ENDBRANCH   8  14
ENDBRANCH   4  13
ENDBRANCH   3   6
ENDBRANCH   2   3
ENDBRANCH   1   2
BRANCH   1  24
ATOM     24  C   UNL A   1      -7.266  -2.324   0.116  0.00  0.00    -0.053 C 
BRANCH  24  25
ATOM     25  C   UNL A   1      -7.652  -1.016  -0.579  0.00  0.00    -0.053 C 
BRANCH  25  26
ATOM     26  C   UNL A   1      -9.009  -1.059  -1.287  0.00  0.00    -0.052 C 
BRANCH  26  27
ATOM     27  C   UNL A   1     -10.191  -1.156  -0.317  0.00  0.00    -0.037 C 
BRANCH  27  28
ATOM     28  C   UNL A   1     -10.846  -2.540  -0.331  0.00  0.00    +0.009 C 
BRANCH  28  29
ATOM     29  N   UNL A   1     -11.748  -2.687   0.821  0.00  0.00    -0.343 N 
ATOM     30  H   UNL A   1     -11.514  -2.403   1.734  0.00  0.00    +0.000 HD
BRANCH  29  31
ATOM     31  C   UNL A   1     -12.994  -3.283   0.479  0.00  0.00    +0.041 A 
ATOM     32  C   UNL A   1     -13.084  -4.687   0.388  0.00  0.00    -0.005 A 
ATOM     33  C   UNL A   1     -14.315  -5.235   0.023  0.00  0.00    +0.047 A 
ATOM     34  N   UNL A   1     -15.399  -4.485  -0.284  0.00  0.00    -0.251 NA
ATOM     35  C   UNL A   1     -15.311  -3.152  -0.216  0.00  0.00    +0.074 A 
ATOM     36  C   UNL A   1     -16.447  -2.421  -0.528  0.00  0.00    -0.017 A 
ATOM     37  C   UNL A   1     -16.447  -1.030  -0.490  0.00  0.00    +0.043 A 
ATOM     38 CL   UNL A   1     -17.879  -0.160  -0.878  0.00  0.00    -0.083 Cl
ATOM     39  C   UNL A   1     -15.296  -0.342  -0.141  0.00  0.00    -0.043 A 
ATOM     40  C   UNL A   1     -14.143  -1.060   0.176  0.00  0.00    -0.049 A 
ATOM     41  C   UNL A   1     -14.127  -2.479   0.152  0.00  0.00    +0.022 A 
ATOM     42  C   UNL A   1     -14.513  -6.723  -0.108  0.00  0.00    -0.010 C 
ATOM     43  C   UNL A   1     -13.492  -7.538   0.676  0.00  0.00    -0.047 C 
ATOM     44  C   UNL A   1     -12.090  -7.036   0.370  0.00  0.00    -0.049 C 
ATOM     45  C   UNL A   1     -11.936  -5.579   0.803  0.00  0.00    -0.024 C 
ENDBRANCH  29  31
ENDBRANCH  28  29
ENDBRANCH  27  28
ENDBRANCH  26  27
ENDBRANCH  25  26
ENDBRANCH  24  25
ENDBRANCH   1  24
TORSDOF 13
