@<TRIPOS>MOLECULE
*****
 34 37 0 0 0
SMALL
GASTEIGER

@<TRIPOS>ATOM
      1 C          -7.7942   -1.5000    0.0000 C.3     1  UNL1        0.0774
      2 C          -7.7942   -2.5000    0.0000 C.2     1  UNL1        0.1779
      3 O          -8.6603   -3.0000    0.0000 O.2     1  UNL1       -0.2912
      4 C          -6.9282   -3.0000    0.0000 C.2     1  UNL1        0.0896
      5 C          -6.9282   -4.0000    0.0000 C.2     1  UNL1        0.0074
      6 C          -7.7942   -4.5000    0.0000 C.ar    1  UNL1        0.0004
      7 C          -8.6603   -4.0000    0.0000 C.ar    1  UNL1        0.0033
      8 C          -9.5263   -4.5000    0.0000 C.ar    1  UNL1        0.0420
      9 C          -9.5263   -5.5000    0.0000 C.ar    1  UNL1        0.1957
     10 O         -10.3923   -6.0000    0.0000 O.3     1  UNL1       -0.2866
     11 C          -8.6603   -6.0000    0.0000 C.ar    1  UNL1        0.0420
     12 C          -7.7942   -5.5000    0.0000 C.ar    1  UNL1        0.0033
     13 C          -6.0622   -2.5000    0.0000 C.2     1  UNL1        0.2676
     14 O          -5.1962   -3.0000    0.0000 O.2     1  UNL1       -0.2683
     15 N          -6.0622   -1.5000    0.0000 N.am    1  UNL1       -0.2016
     16 C          -5.1962   -1.0000    0.0000 C.3     1  UNL1        0.1155
     17 C          -4.3301   -1.5000    0.0000 C.3     1  UNL1        0.0253
     18 C          -3.4641   -1.0000    0.0000 C.3     1  UNL1        0.0252
     19 C          -2.5981   -1.5000    0.0000 C.3     1  UNL1        0.1122
     20 N          -1.7321   -1.0000    0.0000 N.pl3   1  UNL1       -0.2378
     21 C          -0.8660   -1.5000    0.0000 C.ar    1  UNL1        0.0638
     22 C           0.0000   -1.0000    0.0000 C.ar    1  UNL1        0.0062
     23 C           0.8660   -1.5000    0.0000 C.ar    1  UNL1        0.0562
     24 N           0.8660   -2.5000    0.0000 N.ar    1  UNL1       -0.2499
     25 C           0.0000   -3.0000    0.0000 C.ar    1  UNL1        0.0821
     26 C           0.0000   -4.0000    0.0000 C.ar    1  UNL1        0.0191
     27 C          -0.8660   -4.5000    0.0000 C.ar    1  UNL1        0.0015
     28 C          -1.7321   -4.0000    0.0000 C.ar    1  UNL1        0.0001
     29 C          -1.7321   -3.0000    0.0000 C.ar    1  UNL1        0.0028
     30 C          -0.8660   -2.5000    0.0000 C.ar    1  UNL1        0.0322
     31 C           1.7321   -1.0000    0.0000 C.3     1  UNL1        0.0455
     32 C           1.7321   -0.0000    0.0000 C.3     1  UNL1        0.0066
     33 C           0.8660    0.5000    0.0000 C.3     1  UNL1        0.0052
     34 C           0.0000   -0.0000    0.0000 C.3     1  UNL1        0.0289
@<TRIPOS>BOND
     1     1     2    1
     2     2     3    2
     3     2     4    1
     4     4     5    2
     5     5     6    1
     6     6     7   ar
     7     7     8   ar
     8     8     9   ar
     9     9    10    1
    10     9    11   ar
    11    11    12   ar
    12     6    12   ar
    13     4    13    1
    14    13    14    2
    15    13    15   am
    16    15    16    1
    17    16    17    1
    18    17    18    1
    19    18    19    1
    20    19    20    1
    21    20    21    1
    22    21    22   ar
    23    22    23   ar
    24    23    24   ar
    25    24    25   ar
    26    25    26   ar
    27    26    27   ar
    28    27    28   ar
    29    28    29   ar
    30    29    30   ar
    31    21    30   ar
    32    25    30   ar
    33    23    31    1
    34    31    32    1
    35    32    33    1
    36    33    34    1
    37    22    34    1
