REMARK  Name = cpd337.pdb
REMARK  11 active torsions:
REMARK  status: ('A' for Active; 'I' for Inactive)
REMARK    1  A    between atoms: C_1  and  C_2
REMARK    2  A    between atoms: C_2  and  C_4
REMARK    3  A    between atoms: C_4  and  C_13
REMARK    4  A    between atoms: C_5  and  C_6
REMARK    5  A    between atoms: C_9  and  O_10
REMARK    6  A    between atoms: N_15  and  C_16
REMARK    7  A    between atoms: C_16  and  C_17
REMARK    8  A    between atoms: C_17  and  C_18
REMARK    9  A    between atoms: C_18  and  C_19
REMARK   10  A    between atoms: C_19  and  N_20
REMARK   11  A    between atoms: N_20  and  C_21
REMARK                            x       y       z     vdW  Elec       q    Type
REMARK                         _______ _______ _______ _____ _____    ______ ____
ROOT
ATOM      1  C   UNL A   1      -4.330  -0.972  -0.020  0.00  0.00    -0.036 C 
ENDROOT
BRANCH   1   2
ATOM      2  C   UNL A   1      -5.638  -0.295  -0.420  0.00  0.00    +0.012 C 
BRANCH   2   5
ATOM      3  C   UNL A   1      -7.520  -1.413   0.708  0.00  0.00    +0.247 C 
ATOM      4  O   UNL A   1      -7.391  -0.758   1.736  0.00  0.00    -0.270 OA
ATOM      5  N   UNL A   1      -6.741  -1.234  -0.414  0.00  0.00    -0.311 N 
ATOM      6  H   UNL A   1      -6.938  -1.754  -1.227  0.00  0.00    +0.000 HD
BRANCH   3   7
ATOM      7  C   UNL A   1      -8.604  -2.429   0.580  0.00  0.00    +0.079 C 
ATOM      8  C   UNL A   1      -8.256  -3.642   0.104  0.00  0.00    -0.039 C 
BRANCH   8   9
ATOM      9  C   UNL A   1      -9.119  -4.810  -0.109  0.00  0.00    -0.024 A 
ATOM     10  C   UNL A   1     -10.228  -4.761  -0.964  0.00  0.00    -0.051 A 
ATOM     11  C   UNL A   1     -11.012  -5.899  -1.172  0.00  0.00    -0.020 A 
ATOM     12  C   UNL A   1     -10.676  -7.089  -0.535  0.00  0.00    +0.117 A 
ATOM     13  C   UNL A   1      -9.568  -7.160   0.301  0.00  0.00    -0.020 A 
ATOM     14  C   UNL A   1      -8.788  -6.021   0.512  0.00  0.00    -0.051 A 
BRANCH  12  15
ATOM     15  O   UNL A   1     -11.415  -8.221  -0.706  0.00  0.00    -0.507 OA
ATOM     16  H   UNL A   1     -12.169  -8.209  -1.263  0.00  0.00    +0.000 HD
ENDBRANCH  12  15
ENDBRANCH   8   9
BRANCH   7  18
ATOM     17  C   UNL A   1     -10.362  -0.621   1.095  0.00  0.00    -0.001 C 
ATOM     18  C   UNL A   1      -9.974  -2.079   1.080  0.00  0.00    +0.165 C 
ATOM     19  O   UNL A   1     -10.770  -2.932   1.471  0.00  0.00    -0.292 OA
ENDBRANCH   7  18
ENDBRANCH   3   7
ENDBRANCH   2   5
ENDBRANCH   1   2
BRANCH   1  20
ATOM     20  C   UNL A   1      -3.258   0.061   0.336  0.00  0.00    -0.036 C 
BRANCH  20  21
ATOM     21  C   UNL A   1      -1.902  -0.586   0.622  0.00  0.00    +0.009 C 
BRANCH  21  22
ATOM     22  N   UNL A   1      -1.240  -0.916  -0.650  0.00  0.00    -0.343 N 
ATOM     23  H   UNL A   1      -1.603  -0.696  -1.538  0.00  0.00    +0.000 HD
BRANCH  22  24
ATOM     24  C   UNL A   1      -0.002  -1.598  -0.430  0.00  0.00    +0.041 A 
ATOM     25  C   UNL A   1       1.200  -0.878  -0.265  0.00  0.00    -0.005 A 
ATOM     26  C   UNL A   1       2.358  -1.612   0.010  0.00  0.00    +0.047 A 
ATOM     27  N   UNL A   1       2.368  -2.957   0.161  0.00  0.00    -0.251 NA
ATOM     28  C   UNL A   1       1.223  -3.638   0.014  0.00  0.00    +0.073 A 
ATOM     29  C   UNL A   1       1.256  -5.019   0.156  0.00  0.00    -0.036 A 
ATOM     30  C   UNL A   1       0.112  -5.806   0.005  0.00  0.00    -0.060 A 
ATOM     31  C   UNL A   1      -1.099  -5.203  -0.297  0.00  0.00    -0.061 A 
ATOM     32  C   UNL A   1      -1.155  -3.817  -0.441  0.00  0.00    -0.051 A 
ATOM     33  C   UNL A   1      -0.002  -3.012  -0.282  0.00  0.00    +0.021 A 
ATOM     34  C   UNL A   1       3.692  -0.943   0.230  0.00  0.00    -0.010 C 
ATOM     35  C   UNL A   1       3.768   0.464  -0.348  0.00  0.00    -0.047 C 
ATOM     36  C   UNL A   1       2.547   1.262   0.082  0.00  0.00    -0.049 C 
ATOM     37  C   UNL A   1       1.272   0.619  -0.461  0.00  0.00    -0.024 C 
ENDBRANCH  22  24
ENDBRANCH  21  22
ENDBRANCH  20  21
ENDBRANCH   1  20
TORSDOF 10
