REMARK  Name = cpd325.pdb
REMARK  5 active torsions:
REMARK  status: ('A' for Active; 'I' for Inactive)
REMARK    1  A    between atoms: C_2  and  C_3
REMARK    2  A    between atoms: C_2  and  C_18
REMARK    3  A    between atoms: C_4  and  C_5
REMARK    4  A    between atoms: N_9  and  C_10
REMARK    5  A    between atoms: C_10  and  C_11
REMARK                            x       y       z     vdW  Elec       q    Type
REMARK                         _______ _______ _______ _____ _____    ______ ____
ROOT
ATOM      1  C   UNL A   1       1.772  -1.841   0.702  0.00  0.00    -0.011 C 
ATOM      2  C   UNL A   1       2.104  -0.618   0.259  0.00  0.00    -0.049 C 
ENDROOT
BRANCH   2   3
ATOM      3  C   UNL A   1       3.352   0.067   0.626  0.00  0.00    -0.009 A 
ATOM      4  C   UNL A   1       4.569  -0.605   0.739  0.00  0.00    -0.052 A 
ATOM      5  C   UNL A   1       5.723   0.098   1.067  0.00  0.00    -0.045 A 
ATOM      6  C   UNL A   1       5.651   1.470   1.268  0.00  0.00    +0.005 A 
ATOM      7  N   UNL A   1       4.473   2.124   1.137  0.00  0.00    -0.348 N 
ATOM      8  C   UNL A   1       3.340   1.451   0.821  0.00  0.00    +0.012 A 
BRANCH   7   9
ATOM      9  C   UNL A   1       4.424   3.592   1.357  0.00  0.00    +0.048 C 
BRANCH   9  10
ATOM     10  C   UNL A   1       5.197   4.330   0.296  0.00  0.00    -0.028 A 
ATOM     11  C   UNL A   1       4.842   4.226  -1.059  0.00  0.00    -0.057 A 
ATOM     12  C   UNL A   1       5.571   4.907  -2.035  0.00  0.00    -0.061 A 
ATOM     13  C   UNL A   1       6.654   5.702  -1.670  0.00  0.00    -0.062 A 
ATOM     14  C   UNL A   1       7.009   5.823  -0.328  0.00  0.00    -0.061 A 
ATOM     15  C   UNL A   1       6.284   5.143   0.651  0.00  0.00    -0.057 A 
ENDBRANCH   9  10
ENDBRANCH   7   9
ENDBRANCH   2   3
BRANCH   1  17
ATOM     16  O   UNL A   1       0.618  -3.823   0.367  0.00  0.00    -0.284 OA
ATOM     17  C   UNL A   1       0.531  -2.594   0.338  0.00  0.00    +0.221 C 
BRANCH  17  18
ATOM     18  C   UNL A   1      -0.698  -1.909  -0.008  0.00  0.00    +0.176 A 
ATOM     19  C   UNL A   1      -1.877  -2.416  -0.527  0.00  0.00    -0.005 A 
ATOM     20  C   UNL A   1      -2.784  -1.332  -0.642  0.00  0.00    +0.022 A 
ATOM     21  C   UNL A   1      -4.109  -1.174  -1.086  0.00  0.00    -0.037 A 
ATOM     22  C   UNL A   1      -4.678   0.105  -1.030  0.00  0.00    +0.019 A 
ATOM     23 BR   UNL A   1      -6.460   0.347  -1.621  0.00  0.00    -0.050 Br
ATOM     24  C   UNL A   1      -3.963   1.204  -0.547  0.00  0.00    -0.044 A 
ATOM     25  C   UNL A   1      -2.644   1.062  -0.101  0.00  0.00    -0.018 A 
ATOM     26  C   UNL A   1      -2.100  -0.219  -0.169  0.00  0.00    +0.136 A 
ATOM     27  O   UNL A   1      -0.840  -0.564   0.216  0.00  0.00    -0.452 OA
ENDBRANCH  17  18
ENDBRANCH   1  17
TORSDOF 5
