@<TRIPOS>MOLECULE
*****
 27 30 0 0 0
SMALL
GASTEIGER

@<TRIPOS>ATOM
      1 O           0.9706   -2.4945    0.0000 O.2     1  UNL1       -0.2833
      2 C           0.9706   -1.4945    0.0000 C.2     1  UNL1        0.2299
      3 C           1.8366   -0.9945    0.0000 C.2     1  UNL1        0.0454
      4 C           1.8366    0.0055    0.0000 C.2     1  UNL1        0.0095
      5 C           2.7026    0.5055    0.0000 C.ar    1  UNL1        0.0700
      6 C           3.5686    0.0055    0.0000 C.ar    1  UNL1        0.0124
      7 C           4.4347    0.5055    0.0000 C.ar    1  UNL1        0.0758
      8 C           4.4347    1.5055    0.0000 C.ar    1  UNL1        0.2904
      9 N           3.5686    2.0055    0.0000 N.ar    1  UNL1       -0.1555
     10 C           3.5686    3.0055    0.0000 C.3     1  UNL1        0.3502
     11 C           4.4347    3.5055    0.0000 C.ar    1  UNL1        0.0555
     12 C           5.3007    3.0055    0.0000 C.ar    1  UNL1        0.0025
     13 C           6.1667    3.5055    0.0000 C.ar    1  UNL1       -0.0001
     14 C           6.1667    4.5055    0.0000 C.ar    1  UNL1       -0.0000
     15 C           5.3007    5.0055    0.0000 C.ar    1  UNL1       -0.0001
     16 C           4.4347    4.5055    0.0000 C.ar    1  UNL1        0.0025
     17 C           2.7026    1.5055    0.0000 C.ar    1  UNL1        0.2902
     18 C           0.1045   -0.9945    0.0000 C.ar    1  UNL1        0.1840
     19 C          -0.8090   -1.4013    0.0000 C.ar    1  UNL1        0.0439
     20 C          -1.4781   -0.6581    0.0000 C.ar    1  UNL1        0.0382
     21 C          -2.4781   -0.6581    0.0000 C.ar    1  UNL1        0.0098
     22 C          -2.9781    0.2079    0.0000 C.ar    1  UNL1        0.0348
     23 BR         -3.9781    0.2079    0.0000 Br      1  UNL1       -0.0490
     24 C          -2.4781    1.0739    0.0000 C.ar    1  UNL1        0.0098
     25 C          -1.4781    1.0739    0.0000 C.ar    1  UNL1        0.0380
     26 C          -0.9781    0.2079    0.0000 C.ar    1  UNL1        0.1455
     27 O           0.0000    0.0000    0.0000 O.2     1  UNL1       -0.4503
@<TRIPOS>UNITY_ATOM_ATTR
9 1
charge 1
@<TRIPOS>BOND
     1     1     2    2
     2     2     3    1
     3     3     4    2
     4     4     5    1
     5     5     6   ar
     6     6     7   ar
     7     7     8   ar
     8     8     9   ar
     9     9    10    1
    10    10    11    1
    11    11    12   ar
    12    12    13   ar
    13    13    14   ar
    14    14    15   ar
    15    15    16   ar
    16    11    16   ar
    17     9    17   ar
    18     5    17   ar
    19     2    18    1
    20    18    19   ar
    21    19    20   ar
    22    20    21   ar
    23    21    22   ar
    24    22    23    1
    25    22    24   ar
    26    24    25   ar
    27    25    26   ar
    28    20    26   ar
    29    26    27   ar
    30    18    27   ar
