MODEL 1
REMARK VINA RESULT:    -8.634      0.000      0.000
REMARK INTER + INTRA:         -11.315
REMARK INTER:                 -11.158
REMARK INTRA:                  -0.157
REMARK UNBOUND:                -0.157
REMARK  Name = cpd325.pdb
REMARK  5 active torsions:
REMARK  status: ('A' for Active; 'I' for Inactive)
REMARK    1  A    between atoms: C_2  and  C_3
REMARK    2  A    between atoms: C_2  and  C_18
REMARK    3  A    between atoms: C_4  and  C_5
REMARK    4  A    between atoms: N_9  and  C_10
REMARK    5  A    between atoms: C_10  and  C_11
REMARK                            x       y       z     vdW  Elec       q    Type
REMARK                         _______ _______ _______ _____ _____    ______ ____
ROOT
ATOM      1  C   UNL A   1      36.106 -34.409 -30.621  0.00  0.00    -0.011 C 
ATOM      2  C   UNL A   1      35.440 -35.313 -29.884  0.00  0.00    -0.049 C 
ENDROOT
BRANCH   2   3
ATOM      3  C   UNL A   1      36.024 -36.587 -29.440  0.00  0.00    -0.009 A 
ATOM      4  C   UNL A   1      35.255 -37.733 -29.239  0.00  0.00    -0.052 A 
ATOM      5  C   UNL A   1      35.864 -38.918 -28.840  0.00  0.00    -0.045 A 
ATOM      6  C   UNL A   1      37.240 -38.948 -28.657  0.00  0.00    +0.005 A 
ATOM      7  N   UNL A   1      37.988 -37.841 -28.873  0.00  0.00    -0.348 N 
ATOM      8  C   UNL A   1      37.407 -36.679 -29.259  0.00  0.00    +0.012 A 
BRANCH   7   9
ATOM      9  C   UNL A   1      39.458 -37.901 -28.671  0.00  0.00    +0.048 C 
BRANCH   9  10
ATOM     10  C   UNL A   1      40.199 -37.572 -29.940  0.00  0.00    -0.028 A 
ATOM     11  C   UNL A   1      39.691 -36.628 -30.848  0.00  0.00    -0.057 A 
ATOM     12  C   UNL A   1      40.382 -36.337 -32.025  0.00  0.00    -0.061 A 
ATOM     13  C   UNL A   1      41.585 -36.978 -32.306  0.00  0.00    -0.062 A 
ATOM     14  C   UNL A   1      42.106 -37.908 -31.407  0.00  0.00    -0.061 A 
ATOM     15  C   UNL A   1      41.418 -38.203 -30.230  0.00  0.00    -0.057 A 
ENDBRANCH   9  10
ENDBRANCH   7   9
ENDBRANCH   2   3
BRANCH   1  17
ATOM     16  O   UNL A   1      36.374 -32.347 -31.644  0.00  0.00    -0.284 OA
ATOM     17  C   UNL A   1      35.570 -33.088 -31.074  0.00  0.00    +0.221 C 
BRANCH  17  18
ATOM     18  C   UNL A   1      34.184 -32.720 -30.867  0.00  0.00    +0.176 A 
ATOM     19  C   UNL A   1      33.630 -31.840 -29.953  0.00  0.00    -0.005 A 
ATOM     20  C   UNL A   1      32.233 -31.808 -30.197  0.00  0.00    +0.022 A 
ATOM     21  C   UNL A   1      31.131 -31.139 -29.636  0.00  0.00    -0.037 A 
ATOM     22  C   UNL A   1      29.864 -31.375 -30.184  0.00  0.00    +0.019 A 
ATOM     23 BR   UNL A   1      28.362 -30.488 -29.449  0.00  0.00    -0.050 Br
ATOM     24  C   UNL A   1      29.683 -32.247 -31.261  0.00  0.00    -0.044 A 
ATOM     25  C   UNL A   1      30.770 -32.920 -31.830  0.00  0.00    -0.018 A 
ATOM     26  C   UNL A   1      32.020 -32.670 -31.265  0.00  0.00    +0.136 A 
ATOM     27  O   UNL A   1      33.196 -33.222 -31.674  0.00  0.00    -0.452 OA
ENDBRANCH  17  18
ENDBRANCH   1  17
TORSDOF 5
ENDMDL
MODEL 2
REMARK VINA RESULT:    -8.552      4.819      9.178
REMARK INTER + INTRA:         -11.209
REMARK INTER:                 -10.488
REMARK INTRA:                  -0.720
REMARK UNBOUND:                -0.157
REMARK  Name = cpd325.pdb
REMARK  5 active torsions:
REMARK  status: ('A' for Active; 'I' for Inactive)
REMARK    1  A    between atoms: C_2  and  C_3
REMARK    2  A    between atoms: C_2  and  C_18
REMARK    3  A    between atoms: C_4  and  C_5
REMARK    4  A    between atoms: N_9  and  C_10
REMARK    5  A    between atoms: C_10  and  C_11
REMARK                            x       y       z     vdW  Elec       q    Type
REMARK                         _______ _______ _______ _____ _____    ______ ____
ROOT
ATOM      1  C   UNL A   1      38.220 -35.895 -31.317  0.00  0.00    -0.011 C 
ATOM      2  C   UNL A   1      37.324 -34.898 -31.399  0.00  0.00    -0.049 C 
ENDROOT
BRANCH   2   3
ATOM      3  C   UNL A   1      35.949 -34.998 -30.889  0.00  0.00    -0.009 A 
ATOM      4  C   UNL A   1      35.293 -33.922 -30.291  0.00  0.00    -0.052 A 
ATOM      5  C   UNL A   1      33.983 -34.068 -29.847  0.00  0.00    -0.045 A 
ATOM      6  C   UNL A   1      33.338 -35.285 -30.016  0.00  0.00    +0.005 A 
ATOM      7  N   UNL A   1      33.969 -36.322 -30.615  0.00  0.00    -0.348 N 
ATOM      8  C   UNL A   1      35.246 -36.196 -31.050  0.00  0.00    +0.012 A 
BRANCH   7   9
ATOM      9  C   UNL A   1      33.255 -37.614 -30.783  0.00  0.00    +0.048 C 
BRANCH   9  10
ATOM     10  C   UNL A   1      34.172 -38.782 -30.531  0.00  0.00    -0.028 A 
ATOM     11  C   UNL A   1      34.798 -39.450 -31.596  0.00  0.00    -0.057 A 
ATOM     12  C   UNL A   1      35.639 -40.537 -31.351  0.00  0.00    -0.061 A 
ATOM     13  C   UNL A   1      35.868 -40.963 -30.046  0.00  0.00    -0.062 A 
ATOM     14  C   UNL A   1      35.262 -40.301 -28.980  0.00  0.00    -0.061 A 
ATOM     15  C   UNL A   1      34.420 -39.215 -29.220  0.00  0.00    -0.057 A 
ENDBRANCH   9  10
ENDBRANCH   7   9
ENDBRANCH   2   3
BRANCH   1  17
ATOM     16  O   UNL A   1      39.906 -34.922 -32.575  0.00  0.00    -0.284 OA
ATOM     17  C   UNL A   1      39.637 -35.836 -31.793  0.00  0.00    +0.221 C 
BRANCH  17  18
ATOM     18  C   UNL A   1      40.630 -36.790 -31.340  0.00  0.00    +0.176 A 
ATOM     19  C   UNL A   1      41.820 -37.175 -31.932  0.00  0.00    -0.005 A 
ATOM     20  C   UNL A   1      42.440 -38.106 -31.060  0.00  0.00    +0.022 A 
ATOM     21  C   UNL A   1      43.631 -38.853 -31.070  0.00  0.00    -0.037 A 
ATOM     22  C   UNL A   1      43.901 -39.684 -29.975  0.00  0.00    +0.019 A 
ATOM     23 BR   UNL A   1      45.498 -40.701 -29.962  0.00  0.00    -0.050 Br
ATOM     24  C   UNL A   1      43.022 -39.778 -28.893  0.00  0.00    -0.044 A 
ATOM     25  C   UNL A   1      41.833 -39.040 -28.868  0.00  0.00    -0.018 A 
ATOM     26  C   UNL A   1      41.586 -38.223 -29.970  0.00  0.00    +0.136 A 
ATOM     27  O   UNL A   1      40.492 -37.429 -30.135  0.00  0.00    -0.452 OA
ENDBRANCH  17  18
ENDBRANCH   1  17
TORSDOF 5
ENDMDL
MODEL 3
REMARK VINA RESULT:    -8.199      5.830      6.932
REMARK INTER + INTRA:         -10.753
REMARK INTER:                 -10.018
REMARK INTRA:                  -0.735
REMARK UNBOUND:                -0.157
REMARK  Name = cpd325.pdb
REMARK  5 active torsions:
REMARK  status: ('A' for Active; 'I' for Inactive)
REMARK    1  A    between atoms: C_2  and  C_3
REMARK    2  A    between atoms: C_2  and  C_18
REMARK    3  A    between atoms: C_4  and  C_5
REMARK    4  A    between atoms: N_9  and  C_10
REMARK    5  A    between atoms: C_10  and  C_11
REMARK                            x       y       z     vdW  Elec       q    Type
REMARK                         _______ _______ _______ _____ _____    ______ ____
ROOT
ATOM      1  C   UNL A   1      34.328 -40.620 -32.668  0.00  0.00    -0.011 C 
ATOM      2  C   UNL A   1      35.464 -40.885 -32.003  0.00  0.00    -0.049 C 
ENDROOT
BRANCH   2   3
ATOM      3  C   UNL A   1      35.875 -40.174 -30.783  0.00  0.00    -0.009 A 
ATOM      4  C   UNL A   1      35.923 -40.795 -29.535  0.00  0.00    -0.052 A 
ATOM      5  C   UNL A   1      36.341 -40.079 -28.419  0.00  0.00    -0.045 A 
ATOM      6  C   UNL A   1      36.719 -38.751 -28.563  0.00  0.00    +0.005 A 
ATOM      7  N   UNL A   1      36.692 -38.156 -29.779  0.00  0.00    -0.348 N 
ATOM      8  C   UNL A   1      36.283 -38.840 -30.875  0.00  0.00    +0.012 A 
BRANCH   7   9
ATOM      9  C   UNL A   1      37.102 -36.734 -29.905  0.00  0.00    +0.048 C 
BRANCH   9  10
ATOM     10  C   UNL A   1      38.368 -36.599 -30.710  0.00  0.00    -0.028 A 
ATOM     11  C   UNL A   1      38.385 -35.871 -31.911  0.00  0.00    -0.057 A 
ATOM     12  C   UNL A   1      39.562 -35.760 -32.653  0.00  0.00    -0.061 A 
ATOM     13  C   UNL A   1      40.731 -36.367 -32.203  0.00  0.00    -0.062 A 
ATOM     14  C   UNL A   1      40.730 -37.082 -31.007  0.00  0.00    -0.061 A 
ATOM     15  C   UNL A   1      39.556 -37.197 -30.262  0.00  0.00    -0.057 A 
ENDBRANCH   9  10
ENDBRANCH   7   9
ENDBRANCH   2   3
BRANCH   1  17
ATOM     16  O   UNL A   1      34.310 -42.459 -34.079  0.00  0.00    -0.284 OA
ATOM     17  C   UNL A   1      33.850 -41.331 -33.895  0.00  0.00    +0.221 C 
BRANCH  17  18
ATOM     18  C   UNL A   1      32.889 -40.726 -34.796  0.00  0.00    +0.176 A 
ATOM     19  C   UNL A   1      31.940 -39.748 -34.550  0.00  0.00    -0.005 A 
ATOM     20  C   UNL A   1      31.286 -39.482 -35.779  0.00  0.00    +0.022 A 
ATOM     21  C   UNL A   1      30.256 -38.623 -36.203  0.00  0.00    -0.037 A 
ATOM     22  C   UNL A   1      29.887 -38.648 -37.555  0.00  0.00    +0.019 A 
ATOM     23 BR   UNL A   1      28.504 -37.503 -38.153  0.00  0.00    -0.050 Br
ATOM     24  C   UNL A   1      30.516 -39.496 -38.470  0.00  0.00    -0.044 A 
ATOM     25  C   UNL A   1      31.543 -40.355 -38.063  0.00  0.00    -0.018 A 
ATOM     26  C   UNL A   1      31.890 -40.313 -36.714  0.00  0.00    +0.136 A 
ATOM     27  O   UNL A   1      32.860 -41.066 -36.123  0.00  0.00    -0.452 OA
ENDBRANCH  17  18
ENDBRANCH   1  17
TORSDOF 5
ENDMDL
MODEL 4
REMARK VINA RESULT:    -8.150      1.536      2.309
REMARK INTER + INTRA:         -10.690
REMARK INTER:                 -10.081
REMARK INTRA:                  -0.609
REMARK UNBOUND:                -0.157
REMARK  Name = cpd325.pdb
REMARK  5 active torsions:
REMARK  status: ('A' for Active; 'I' for Inactive)
REMARK    1  A    between atoms: C_2  and  C_3
REMARK    2  A    between atoms: C_2  and  C_18
REMARK    3  A    between atoms: C_4  and  C_5
REMARK    4  A    between atoms: N_9  and  C_10
REMARK    5  A    between atoms: C_10  and  C_11
REMARK                            x       y       z     vdW  Elec       q    Type
REMARK                         _______ _______ _______ _____ _____    ______ ____
ROOT
ATOM      1  C   UNL A   1      34.497 -33.515 -30.145  0.00  0.00    -0.011 C 
ATOM      2  C   UNL A   1      33.850 -34.684 -30.014  0.00  0.00    -0.049 C 
ENDROOT
BRANCH   2   3
ATOM      3  C   UNL A   1      34.291 -35.758 -29.112  0.00  0.00    -0.009 A 
ATOM      4  C   UNL A   1      33.857 -35.850 -27.790  0.00  0.00    -0.052 A 
ATOM      5  C   UNL A   1      34.289 -36.901 -26.989  0.00  0.00    -0.045 A 
ATOM      6  C   UNL A   1      35.142 -37.859 -27.521  0.00  0.00    +0.005 A 
ATOM      7  N   UNL A   1      35.544 -37.780 -28.811  0.00  0.00    -0.348 N 
ATOM      8  C   UNL A   1      35.134 -36.759 -29.603  0.00  0.00    +0.012 A 
BRANCH   7   9
ATOM      9  C   UNL A   1      36.457 -38.818 -29.357  0.00  0.00    +0.048 C 
BRANCH   9  10
ATOM     10  C   UNL A   1      37.886 -38.345 -29.353  0.00  0.00    -0.028 A 
ATOM     11  C   UNL A   1      38.334 -37.393 -30.285  0.00  0.00    -0.057 A 
ATOM     12  C   UNL A   1      39.663 -36.969 -30.278  0.00  0.00    -0.061 A 
ATOM     13  C   UNL A   1      40.556 -37.483 -29.342  0.00  0.00    -0.062 A 
ATOM     14  C   UNL A   1      40.122 -38.419 -28.405  0.00  0.00    -0.061 A 
ATOM     15  C   UNL A   1      38.794 -38.847 -28.408  0.00  0.00    -0.057 A 
ENDBRANCH   9  10
ENDBRANCH   7   9
ENDBRANCH   2   3
BRANCH   1  17
ATOM     16  O   UNL A   1      34.937 -31.946 -31.794  0.00  0.00    -0.284 OA
ATOM     17  C   UNL A   1      34.077 -32.379 -31.024  0.00  0.00    +0.221 C 
BRANCH  17  18
ATOM     18  C   UNL A   1      32.732 -31.840 -30.978  0.00  0.00    +0.176 A 
ATOM     19  C   UNL A   1      32.249 -30.726 -30.315  0.00  0.00    -0.005 A 
ATOM     20  C   UNL A   1      30.871 -30.615 -30.632  0.00  0.00    +0.022 A 
ATOM     21  C   UNL A   1      29.830 -29.732 -30.295  0.00  0.00    -0.037 A 
ATOM     22  C   UNL A   1      28.561 -29.963 -30.842  0.00  0.00    +0.019 A 
ATOM     23 BR   UNL A   1      27.142 -28.789 -30.405  0.00  0.00    -0.050 Br
ATOM     24  C   UNL A   1      28.320 -31.037 -31.703  0.00  0.00    -0.044 A 
ATOM     25  C   UNL A   1      29.346 -31.924 -32.048  0.00  0.00    -0.018 A 
ATOM     26  C   UNL A   1      30.597 -31.674 -31.490  0.00  0.00    +0.136 A 
ATOM     27  O   UNL A   1      31.720 -32.415 -31.702  0.00  0.00    -0.452 OA
ENDBRANCH  17  18
ENDBRANCH   1  17
TORSDOF 5
ENDMDL
MODEL 5
REMARK VINA RESULT:    -7.995      4.087      9.859
REMARK INTER + INTRA:         -10.489
REMARK INTER:                  -9.839
REMARK INTRA:                  -0.650
REMARK UNBOUND:                -0.157
REMARK  Name = cpd325.pdb
REMARK  5 active torsions:
REMARK  status: ('A' for Active; 'I' for Inactive)
REMARK    1  A    between atoms: C_2  and  C_3
REMARK    2  A    between atoms: C_2  and  C_18
REMARK    3  A    between atoms: C_4  and  C_5
REMARK    4  A    between atoms: N_9  and  C_10
REMARK    5  A    between atoms: C_10  and  C_11
REMARK                            x       y       z     vdW  Elec       q    Type
REMARK                         _______ _______ _______ _____ _____    ______ ____
ROOT
ATOM      1  C   UNL A   1      34.718 -36.368 -29.381  0.00  0.00    -0.011 C 
ATOM      2  C   UNL A   1      34.559 -35.039 -29.486  0.00  0.00    -0.049 C 
ENDROOT
BRANCH   2   3
ATOM      3  C   UNL A   1      33.396 -34.408 -30.128  0.00  0.00    -0.009 A 
ATOM      4  C   UNL A   1      32.401 -35.148 -30.767  0.00  0.00    -0.052 A 
ATOM      5  C   UNL A   1      31.311 -34.501 -31.337  0.00  0.00    -0.045 A 
ATOM      6  C   UNL A   1      31.221 -33.118 -31.253  0.00  0.00    +0.005 A 
ATOM      7  N   UNL A   1      32.176 -32.402 -30.615  0.00  0.00    -0.348 N 
ATOM      8  C   UNL A   1      33.246 -33.020 -30.057  0.00  0.00    +0.012 A 
BRANCH   7   9
ATOM      9  C   UNL A   1      32.054 -30.924 -30.539  0.00  0.00    +0.048 C 
BRANCH   9  10
ATOM     10  C   UNL A   1      30.793 -30.515 -29.826  0.00  0.00    -0.028 A 
ATOM     11  C   UNL A   1      30.578 -30.864 -28.482  0.00  0.00    -0.057 A 
ATOM     12  C   UNL A   1      29.401 -30.487 -27.833  0.00  0.00    -0.061 A 
ATOM     13  C   UNL A   1      28.432 -29.756 -28.514  0.00  0.00    -0.062 A 
ATOM     14  C   UNL A   1      28.638 -29.393 -29.844  0.00  0.00    -0.061 A 
ATOM     15  C   UNL A   1      29.812 -29.768 -30.497  0.00  0.00    -0.057 A 
ENDBRANCH   9  10
ENDBRANCH   7   9
ENDBRANCH   2   3
BRANCH   1  17
ATOM     16  O   UNL A   1      35.594 -37.684 -27.687  0.00  0.00    -0.284 OA
ATOM     17  C   UNL A   1      35.865 -37.060 -28.715  0.00  0.00    +0.221 C 
BRANCH  17  18
ATOM     18  C   UNL A   1      37.205 -37.007 -29.263  0.00  0.00    +0.176 A 
ATOM     19  C   UNL A   1      38.360 -37.640 -28.837  0.00  0.00    -0.005 A 
ATOM     20  C   UNL A   1      39.390 -37.288 -29.747  0.00  0.00    +0.022 A 
ATOM     21  C   UNL A   1      40.758 -37.585 -29.878  0.00  0.00    -0.037 A 
ATOM     22  C   UNL A   1      41.455 -37.030 -30.960  0.00  0.00    +0.019 A 
ATOM     23 BR   UNL A   1      43.298 -37.412 -31.161  0.00  0.00    -0.050 Br
ATOM     24  C   UNL A   1      40.822 -36.205 -31.893  0.00  0.00    -0.044 A 
ATOM     25  C   UNL A   1      39.461 -35.902 -31.776  0.00  0.00    -0.018 A 
ATOM     26  C   UNL A   1      38.791 -36.463 -30.691  0.00  0.00    +0.136 A 
ATOM     27  O   UNL A   1      37.470 -36.293 -30.402  0.00  0.00    -0.452 OA
ENDBRANCH  17  18
ENDBRANCH   1  17
TORSDOF 5
ENDMDL
MODEL 6
REMARK VINA RESULT:    -7.961      2.285      3.148
REMARK INTER + INTRA:         -10.445
REMARK INTER:                 -10.218
REMARK INTRA:                  -0.228
REMARK UNBOUND:                -0.157
REMARK  Name = cpd325.pdb
REMARK  5 active torsions:
REMARK  status: ('A' for Active; 'I' for Inactive)
REMARK    1  A    between atoms: C_2  and  C_3
REMARK    2  A    between atoms: C_2  and  C_18
REMARK    3  A    between atoms: C_4  and  C_5
REMARK    4  A    between atoms: N_9  and  C_10
REMARK    5  A    between atoms: C_10  and  C_11
REMARK                            x       y       z     vdW  Elec       q    Type
REMARK                         _______ _______ _______ _____ _____    ______ ____
ROOT
ATOM      1  C   UNL A   1      33.178 -35.547 -28.688  0.00  0.00    -0.011 C 
ATOM      2  C   UNL A   1      34.371 -35.015 -28.999  0.00  0.00    -0.049 C 
ENDROOT
BRANCH   2   3
ATOM      3  C   UNL A   1      35.459 -35.777 -29.629  0.00  0.00    -0.009 A 
ATOM      4  C   UNL A   1      35.538 -37.168 -29.558  0.00  0.00    -0.052 A 
ATOM      5  C   UNL A   1      36.577 -37.839 -30.193  0.00  0.00    -0.045 A 
ATOM      6  C   UNL A   1      37.524 -37.112 -30.903  0.00  0.00    +0.005 A 
ATOM      7  N   UNL A   1      37.434 -35.764 -30.988  0.00  0.00    -0.348 N 
ATOM      8  C   UNL A   1      36.428 -35.097 -30.372  0.00  0.00    +0.012 A 
BRANCH   7   9
ATOM      9  C   UNL A   1      38.460 -35.011 -31.754  0.00  0.00    +0.048 C 
BRANCH   9  10
ATOM     10  C   UNL A   1      39.710 -35.829 -31.946  0.00  0.00    -0.028 A 
ATOM     11  C   UNL A   1      40.388 -36.378 -30.846  0.00  0.00    -0.057 A 
ATOM     12  C   UNL A   1      41.551 -37.127 -31.034  0.00  0.00    -0.061 A 
ATOM     13  C   UNL A   1      42.043 -37.342 -32.319  0.00  0.00    -0.062 A 
ATOM     14  C   UNL A   1      41.372 -36.813 -33.419  0.00  0.00    -0.061 A 
ATOM     15  C   UNL A   1      40.210 -36.062 -33.236  0.00  0.00    -0.057 A 
ENDBRANCH   9  10
ENDBRANCH   7   9
ENDBRANCH   2   3
BRANCH   1  17
ATOM     16  O   UNL A   1      31.628 -35.245 -26.991  0.00  0.00    -0.284 OA
ATOM     17  C   UNL A   1      32.029 -34.811 -28.073  0.00  0.00    +0.221 C 
BRANCH  17  18
ATOM     18  C   UNL A   1      31.443 -33.650 -28.711  0.00  0.00    +0.176 A 
ATOM     19  C   UNL A   1      31.048 -33.468 -30.026  0.00  0.00    -0.005 A 
ATOM     20  C   UNL A   1      30.497 -32.165 -30.121  0.00  0.00    +0.022 A 
ATOM     21  C   UNL A   1      29.932 -31.386 -31.146  0.00  0.00    -0.037 A 
ATOM     22  C   UNL A   1      29.478 -30.100 -30.827  0.00  0.00    +0.019 A 
ATOM     23 BR   UNL A   1      28.712 -29.029 -32.187  0.00  0.00    -0.050 Br
ATOM     24  C   UNL A   1      29.574 -29.590 -29.529  0.00  0.00    -0.044 A 
ATOM     25  C   UNL A   1      30.133 -30.354 -28.498  0.00  0.00    -0.018 A 
ATOM     26  C   UNL A   1      30.580 -31.629 -28.842  0.00  0.00    +0.136 A 
ATOM     27  O   UNL A   1      31.149 -32.523 -27.987  0.00  0.00    -0.452 OA
ENDBRANCH  17  18
ENDBRANCH   1  17
TORSDOF 5
ENDMDL
MODEL 7
REMARK VINA RESULT:    -7.941     15.890     18.749
REMARK INTER + INTRA:         -10.419
REMARK INTER:                  -9.683
REMARK INTRA:                  -0.736
REMARK UNBOUND:                -0.157
REMARK  Name = cpd325.pdb
REMARK  5 active torsions:
REMARK  status: ('A' for Active; 'I' for Inactive)
REMARK    1  A    between atoms: C_2  and  C_3
REMARK    2  A    between atoms: C_2  and  C_18
REMARK    3  A    between atoms: C_4  and  C_5
REMARK    4  A    between atoms: N_9  and  C_10
REMARK    5  A    between atoms: C_10  and  C_11
REMARK                            x       y       z     vdW  Elec       q    Type
REMARK                         _______ _______ _______ _____ _____    ______ ____
ROOT
ATOM      1  C   UNL A   1      42.101 -19.826 -37.009  0.00  0.00    -0.011 C 
ATOM      2  C   UNL A   1      41.866 -21.144 -36.907  0.00  0.00    -0.049 C 
ENDROOT
BRANCH   2   3
ATOM      3  C   UNL A   1      40.801 -21.716 -36.070  0.00  0.00    -0.009 A 
ATOM      4  C   UNL A   1      39.981 -22.755 -36.510  0.00  0.00    -0.052 A 
ATOM      5  C   UNL A   1      39.004 -23.273 -35.667  0.00  0.00    -0.045 A 
ATOM      6  C   UNL A   1      38.865 -22.755 -34.386  0.00  0.00    +0.005 A 
ATOM      7  N   UNL A   1      39.676 -21.762 -33.953  0.00  0.00    -0.348 N 
ATOM      8  C   UNL A   1      40.630 -21.245 -34.766  0.00  0.00    +0.012 A 
BRANCH   7   9
ATOM      9  C   UNL A   1      39.506 -21.226 -32.579  0.00  0.00    +0.048 C 
BRANCH   9  10
ATOM     10  C   UNL A   1      38.552 -20.061 -32.560  0.00  0.00    -0.028 A 
ATOM     11  C   UNL A   1      39.020 -18.747 -32.398  0.00  0.00    -0.057 A 
ATOM     12  C   UNL A   1      38.126 -17.676 -32.372  0.00  0.00    -0.061 A 
ATOM     13  C   UNL A   1      36.760 -17.903 -32.515  0.00  0.00    -0.062 A 
ATOM     14  C   UNL A   1      36.284 -19.201 -32.689  0.00  0.00    -0.061 A 
ATOM     15  C   UNL A   1      37.173 -20.275 -32.713  0.00  0.00    -0.057 A 
ENDBRANCH   9  10
ENDBRANCH   7   9
ENDBRANCH   2   3
BRANCH   1  17
ATOM     16  O   UNL A   1      43.322 -17.981 -37.700  0.00  0.00    -0.284 OA
ATOM     17  C   UNL A   1      43.150 -19.190 -37.866  0.00  0.00    +0.221 C 
BRANCH  17  18
ATOM     18  C   UNL A   1      43.923 -19.962 -38.817  0.00  0.00    +0.176 A 
ATOM     19  C   UNL A   1      45.073 -20.709 -38.623  0.00  0.00    -0.005 A 
ATOM     20  C   UNL A   1      45.402 -21.302 -39.868  0.00  0.00    +0.022 A 
ATOM     21  C   UNL A   1      46.421 -22.150 -40.339  0.00  0.00    -0.037 A 
ATOM     22  C   UNL A   1      46.391 -22.536 -41.685  0.00  0.00    +0.019 A 
ATOM     23 BR   UNL A   1      47.749 -23.677 -42.346  0.00  0.00    -0.050 Br
ATOM     24  C   UNL A   1      45.383 -22.102 -42.550  0.00  0.00    -0.044 A 
ATOM     25  C   UNL A   1      44.362 -21.259 -42.095  0.00  0.00    -0.018 A 
ATOM     26  C   UNL A   1      44.415 -20.887 -40.754  0.00  0.00    +0.136 A 
ATOM     27  O   UNL A   1      43.519 -20.078 -40.122  0.00  0.00    -0.452 OA
ENDBRANCH  17  18
ENDBRANCH   1  17
TORSDOF 5
ENDMDL
MODEL 8
REMARK VINA RESULT:    -7.905     16.285     18.114
REMARK INTER + INTRA:         -10.373
REMARK INTER:                  -9.525
REMARK INTRA:                  -0.848
REMARK UNBOUND:                -0.157
REMARK  Name = cpd325.pdb
REMARK  5 active torsions:
REMARK  status: ('A' for Active; 'I' for Inactive)
REMARK    1  A    between atoms: C_2  and  C_3
REMARK    2  A    between atoms: C_2  and  C_18
REMARK    3  A    between atoms: C_4  and  C_5
REMARK    4  A    between atoms: N_9  and  C_10
REMARK    5  A    between atoms: C_10  and  C_11
REMARK                            x       y       z     vdW  Elec       q    Type
REMARK                         _______ _______ _______ _____ _____    ______ ____
ROOT
ATOM      1  C   UNL A   1      42.239 -22.056 -39.294  0.00  0.00    -0.011 C 
ATOM      2  C   UNL A   1      42.463 -21.108 -40.218  0.00  0.00    -0.049 C 
ENDROOT
BRANCH   2   3
ATOM      3  C   UNL A   1      43.794 -20.552 -40.503  0.00  0.00    -0.009 A 
ATOM      4  C   UNL A   1      44.090 -19.896 -41.698  0.00  0.00    -0.052 A 
ATOM      5  C   UNL A   1      45.360 -19.369 -41.905  0.00  0.00    -0.045 A 
ATOM      6  C   UNL A   1      46.319 -19.493 -40.909  0.00  0.00    +0.005 A 
ATOM      7  N   UNL A   1      46.024 -20.110 -39.742  0.00  0.00    -0.348 N 
ATOM      8  C   UNL A   1      44.791 -20.632 -39.528  0.00  0.00    +0.012 A 
BRANCH   7   9
ATOM      9  C   UNL A   1      47.069 -20.228 -38.693  0.00  0.00    +0.048 C 
BRANCH   9  10
ATOM     10  C   UNL A   1      46.694 -19.452 -37.458  0.00  0.00    -0.028 A 
ATOM     11  C   UNL A   1      46.685 -18.048 -37.464  0.00  0.00    -0.057 A 
ATOM     12  C   UNL A   1      46.345 -17.338 -36.311  0.00  0.00    -0.061 A 
ATOM     13  C   UNL A   1      46.004 -18.020 -35.146  0.00  0.00    -0.062 A 
ATOM     14  C   UNL A   1      45.998 -19.414 -35.131  0.00  0.00    -0.061 A 
ATOM     15  C   UNL A   1      46.338 -20.127 -36.280  0.00  0.00    -0.057 A 
ENDBRANCH   9  10
ENDBRANCH   7   9
ENDBRANCH   2   3
BRANCH   1  17
ATOM     16  O   UNL A   1      40.478 -23.468 -39.822  0.00  0.00    -0.284 OA
ATOM     17  C   UNL A   1      40.912 -22.676 -38.984  0.00  0.00    +0.221 C 
BRANCH  17  18
ATOM     18  C   UNL A   1      40.200 -22.370 -37.760  0.00  0.00    +0.176 A 
ATOM     19  C   UNL A   1      39.420 -21.271 -37.441  0.00  0.00    -0.005 A 
ATOM     20  C   UNL A   1      38.916 -21.481 -36.133  0.00  0.00    +0.022 A 
ATOM     21  C   UNL A   1      38.088 -20.766 -35.249  0.00  0.00    -0.037 A 
ATOM     22  C   UNL A   1      37.804 -21.335 -34.001  0.00  0.00    +0.019 A 
ATOM     23 BR   UNL A   1      36.691 -20.395 -32.791  0.00  0.00    -0.050 Br
ATOM     24  C   UNL A   1      38.320 -22.579 -33.629  0.00  0.00    -0.044 A 
ATOM     25  C   UNL A   1      39.145 -23.302 -34.498  0.00  0.00    -0.018 A 
ATOM     26  C   UNL A   1      39.414 -22.714 -35.732  0.00  0.00    +0.136 A 
ATOM     27  O   UNL A   1      40.189 -23.255 -36.713  0.00  0.00    -0.452 OA
ENDBRANCH  17  18
ENDBRANCH   1  17
TORSDOF 5
ENDMDL
MODEL 9
REMARK VINA RESULT:    -7.899      4.242      9.300
REMARK INTER + INTRA:         -10.366
REMARK INTER:                  -9.673
REMARK INTRA:                  -0.693
REMARK UNBOUND:                -0.157
REMARK  Name = cpd325.pdb
REMARK  5 active torsions:
REMARK  status: ('A' for Active; 'I' for Inactive)
REMARK    1  A    between atoms: C_2  and  C_3
REMARK    2  A    between atoms: C_2  and  C_18
REMARK    3  A    between atoms: C_4  and  C_5
REMARK    4  A    between atoms: N_9  and  C_10
REMARK    5  A    between atoms: C_10  and  C_11
REMARK                            x       y       z     vdW  Elec       q    Type
REMARK                         _______ _______ _______ _____ _____    ______ ____
ROOT
ATOM      1  C   UNL A   1      35.052 -37.357 -28.758  0.00  0.00    -0.011 C 
ATOM      2  C   UNL A   1      34.636 -36.506 -27.807  0.00  0.00    -0.049 C 
ENDROOT
BRANCH   2   3
ATOM      3  C   UNL A   1      33.434 -35.669 -27.936  0.00  0.00    -0.009 A 
ATOM      4  C   UNL A   1      32.317 -35.833 -27.116  0.00  0.00    -0.052 A 
ATOM      5  C   UNL A   1      31.216 -34.998 -27.268  0.00  0.00    -0.045 A 
ATOM      6  C   UNL A   1      31.246 -33.998 -28.231  0.00  0.00    +0.005 A 
ATOM      7  N   UNL A   1      32.339 -33.827 -29.011  0.00  0.00    -0.348 N 
ATOM      8  C   UNL A   1      33.418 -34.636 -28.876  0.00  0.00    +0.012 A 
BRANCH   7   9
ATOM      9  C   UNL A   1      32.346 -32.749 -30.033  0.00  0.00    +0.048 C 
BRANCH   9  10
ATOM     10  C   UNL A   1      31.190 -32.894 -30.987  0.00  0.00    -0.028 A 
ATOM     11  C   UNL A   1      31.009 -34.073 -31.729  0.00  0.00    -0.057 A 
ATOM     12  C   UNL A   1      29.940 -34.193 -32.617  0.00  0.00    -0.061 A 
ATOM     13  C   UNL A   1      29.037 -33.144 -32.769  0.00  0.00    -0.062 A 
ATOM     14  C   UNL A   1      29.198 -31.973 -32.031  0.00  0.00    -0.061 A 
ATOM     15  C   UNL A   1      30.267 -31.848 -31.143  0.00  0.00    -0.057 A 
ENDBRANCH   9  10
ENDBRANCH   7   9
ENDBRANCH   2   3
BRANCH   1  17
ATOM     16  O   UNL A   1      36.072 -39.333 -28.103  0.00  0.00    -0.284 OA
ATOM     17  C   UNL A   1      36.249 -38.251 -28.666  0.00  0.00    +0.221 C 
BRANCH  17  18
ATOM     18  C   UNL A   1      37.528 -37.864 -29.226  0.00  0.00    +0.176 A 
ATOM     19  C   UNL A   1      38.809 -38.168 -28.797  0.00  0.00    -0.005 A 
ATOM     20  C   UNL A   1      39.710 -37.580 -29.720  0.00  0.00    +0.022 A 
ATOM     21  C   UNL A   1      41.108 -37.514 -29.856  0.00  0.00    -0.037 A 
ATOM     22  C   UNL A   1      41.635 -36.820 -30.954  0.00  0.00    +0.019 A 
ATOM     23 BR   UNL A   1      43.514 -36.716 -31.162  0.00  0.00    -0.050 Br
ATOM     24  C   UNL A   1      40.808 -36.206 -31.897  0.00  0.00    -0.044 A 
ATOM     25  C   UNL A   1      39.415 -36.263 -31.775  0.00  0.00    -0.018 A 
ATOM     26  C   UNL A   1      38.915 -36.957 -30.675  0.00  0.00    +0.136 A 
ATOM     27  O   UNL A   1      37.597 -37.128 -30.380  0.00  0.00    -0.452 OA
ENDBRANCH  17  18
ENDBRANCH   1  17
TORSDOF 5
ENDMDL
MODEL 10
REMARK VINA RESULT:    -7.854      7.704      9.863
REMARK INTER + INTRA:         -10.307
REMARK INTER:                  -9.622
REMARK INTRA:                  -0.685
REMARK UNBOUND:                -0.157
REMARK  Name = cpd325.pdb
REMARK  5 active torsions:
REMARK  status: ('A' for Active; 'I' for Inactive)
REMARK    1  A    between atoms: C_2  and  C_3
REMARK    2  A    between atoms: C_2  and  C_18
REMARK    3  A    between atoms: C_4  and  C_5
REMARK    4  A    between atoms: N_9  and  C_10
REMARK    5  A    between atoms: C_10  and  C_11
REMARK                            x       y       z     vdW  Elec       q    Type
REMARK                         _______ _______ _______ _____ _____    ______ ____
ROOT
ATOM      1  C   UNL A   1      34.240 -41.537 -33.177  0.00  0.00    -0.011 C 
ATOM      2  C   UNL A   1      34.613 -40.342 -32.691  0.00  0.00    -0.049 C 
ENDROOT
BRANCH   2   3
ATOM      3  C   UNL A   1      35.333 -40.171 -31.421  0.00  0.00    -0.009 A 
ATOM      4  C   UNL A   1      35.675 -41.249 -30.604  0.00  0.00    -0.052 A 
ATOM      5  C   UNL A   1      36.376 -41.031 -29.423  0.00  0.00    -0.045 A 
ATOM      6  C   UNL A   1      36.739 -39.736 -29.076  0.00  0.00    +0.005 A 
ATOM      7  N   UNL A   1      36.424 -38.694 -29.880  0.00  0.00    -0.348 N 
ATOM      8  C   UNL A   1      35.738 -38.892 -31.032  0.00  0.00    +0.012 A 
BRANCH   7   9
ATOM      9  C   UNL A   1      36.824 -37.319 -29.485  0.00  0.00    +0.048 C 
BRANCH   9  10
ATOM     10  C   UNL A   1      38.042 -36.864 -30.245  0.00  0.00    -0.028 A 
ATOM     11  C   UNL A   1      37.939 -35.904 -31.265  0.00  0.00    -0.057 A 
ATOM     12  C   UNL A   1      39.072 -35.496 -31.969  0.00  0.00    -0.061 A 
ATOM     13  C   UNL A   1      40.318 -36.035 -31.660  0.00  0.00    -0.062 A 
ATOM     14  C   UNL A   1      40.436 -36.979 -30.642  0.00  0.00    -0.061 A 
ATOM     15  C   UNL A   1      39.305 -37.391 -29.936  0.00  0.00    -0.057 A 
ENDBRANCH   9  10
ENDBRANCH   7   9
ENDBRANCH   2   3
BRANCH   1  17
ATOM     16  O   UNL A   1      33.107 -40.763 -35.045  0.00  0.00    -0.284 OA
ATOM     17  C   UNL A   1      33.533 -41.770 -34.475  0.00  0.00    +0.221 C 
BRANCH  17  18
ATOM     18  C   UNL A   1      33.380 -43.100 -35.028  0.00  0.00    +0.176 A 
ATOM     19  C   UNL A   1      34.067 -44.265 -34.733  0.00  0.00    -0.005 A 
ATOM     20  C   UNL A   1      33.501 -45.297 -35.524  0.00  0.00    +0.022 A 
ATOM     21  C   UNL A   1      33.734 -46.673 -35.695  0.00  0.00    -0.037 A 
ATOM     22  C   UNL A   1      32.924 -47.374 -36.598  0.00  0.00    +0.019 A 
ATOM     23 BR   UNL A   1      33.215 -49.228 -36.849  0.00  0.00    -0.050 Br
ATOM     24  C   UNL A   1      31.907 -46.739 -37.315  0.00  0.00    -0.044 A 
ATOM     25  C   UNL A   1      31.663 -45.370 -37.154  0.00  0.00    -0.018 A 
ATOM     26  C   UNL A   1      32.483 -44.695 -36.253  0.00  0.00    +0.136 A 
ATOM     27  O   UNL A   1      32.406 -43.368 -35.955  0.00  0.00    -0.452 OA
ENDBRANCH  17  18
ENDBRANCH   1  17
TORSDOF 5
ENDMDL
MODEL 11
REMARK VINA RESULT:    -7.803     18.059     19.820
REMARK INTER + INTRA:         -10.242
REMARK INTER:                  -9.643
REMARK INTRA:                  -0.598
REMARK UNBOUND:                -0.157
REMARK  Name = cpd325.pdb
REMARK  5 active torsions:
REMARK  status: ('A' for Active; 'I' for Inactive)
REMARK    1  A    between atoms: C_2  and  C_3
REMARK    2  A    between atoms: C_2  and  C_18
REMARK    3  A    between atoms: C_4  and  C_5
REMARK    4  A    between atoms: N_9  and  C_10
REMARK    5  A    between atoms: C_10  and  C_11
REMARK                            x       y       z     vdW  Elec       q    Type
REMARK                         _______ _______ _______ _____ _____    ______ ____
ROOT
ATOM      1  C   UNL A   1      44.391 -19.932 -35.750  0.00  0.00    -0.011 C 
ATOM      2  C   UNL A   1      43.332 -20.677 -36.107  0.00  0.00    -0.049 C 
ENDROOT
BRANCH   2   3
ATOM      3  C   UNL A   1      42.984 -20.975 -37.504  0.00  0.00    -0.009 A 
ATOM      4  C   UNL A   1      41.793 -21.608 -37.859  0.00  0.00    -0.052 A 
ATOM      5  C   UNL A   1      41.504 -21.845 -39.198  0.00  0.00    -0.045 A 
ATOM      6  C   UNL A   1      42.406 -21.436 -40.172  0.00  0.00    +0.005 A 
ATOM      7  N   UNL A   1      43.552 -20.804 -39.827  0.00  0.00    -0.348 N 
ATOM      8  C   UNL A   1      43.847 -20.569 -38.525  0.00  0.00    +0.012 A 
BRANCH   7   9
ATOM      9  C   UNL A   1      44.499 -20.377 -40.888  0.00  0.00    +0.048 C 
BRANCH   9  10
ATOM     10  C   UNL A   1      45.520 -21.448 -41.173  0.00  0.00    -0.028 A 
ATOM     11  C   UNL A   1      46.461 -21.823 -40.201  0.00  0.00    -0.057 A 
ATOM     12  C   UNL A   1      47.408 -22.810 -40.479  0.00  0.00    -0.061 A 
ATOM     13  C   UNL A   1      47.421 -23.435 -41.723  0.00  0.00    -0.062 A 
ATOM     14  C   UNL A   1      46.485 -23.080 -42.692  0.00  0.00    -0.061 A 
ATOM     15  C   UNL A   1      45.537 -22.093 -42.419  0.00  0.00    -0.057 A 
ENDBRANCH   9  10
ENDBRANCH   7   9
ENDBRANCH   2   3
BRANCH   1  17
ATOM     16  O   UNL A   1      45.343 -20.542 -33.727  0.00  0.00    -0.284 OA
ATOM     17  C   UNL A   1      44.806 -19.622 -34.346  0.00  0.00    +0.221 C 
BRANCH  17  18
ATOM     18  C   UNL A   1      44.602 -18.309 -33.767  0.00  0.00    +0.176 A 
ATOM     19  C   UNL A   1      44.842 -17.864 -32.479  0.00  0.00    -0.005 A 
ATOM     20  C   UNL A   1      44.512 -16.486 -32.443  0.00  0.00    +0.022 A 
ATOM     21  C   UNL A   1      44.527 -15.474 -31.467  0.00  0.00    -0.037 A 
ATOM     22  C   UNL A   1      44.121 -14.186 -31.841  0.00  0.00    +0.019 A 
ATOM     23 BR   UNL A   1      44.131 -12.805 -30.546  0.00  0.00    -0.050 Br
ATOM     24  C   UNL A   1      43.710 -13.898 -33.145  0.00  0.00    -0.044 A 
ATOM     25  C   UNL A   1      43.691 -14.894 -34.128  0.00  0.00    -0.018 A 
ATOM     26  C   UNL A   1      44.097 -16.166 -33.730  0.00  0.00    +0.136 A 
ATOM     27  O   UNL A   1      44.151 -17.265 -34.533  0.00  0.00    -0.452 OA
ENDBRANCH  17  18
ENDBRANCH   1  17
TORSDOF 5
ENDMDL
MODEL 12
REMARK VINA RESULT:    -7.728     16.329     18.128
REMARK INTER + INTRA:         -10.144
REMARK INTER:                  -9.473
REMARK INTRA:                  -0.671
REMARK UNBOUND:                -0.157
REMARK  Name = cpd325.pdb
REMARK  5 active torsions:
REMARK  status: ('A' for Active; 'I' for Inactive)
REMARK    1  A    between atoms: C_2  and  C_3
REMARK    2  A    between atoms: C_2  and  C_18
REMARK    3  A    between atoms: C_4  and  C_5
REMARK    4  A    between atoms: N_9  and  C_10
REMARK    5  A    between atoms: C_10  and  C_11
REMARK                            x       y       z     vdW  Elec       q    Type
REMARK                         _______ _______ _______ _____ _____    ______ ____
ROOT
ATOM      1  C   UNL A   1      43.462 -19.705 -34.883  0.00  0.00    -0.011 C 
ATOM      2  C   UNL A   1      44.559 -18.933 -34.835  0.00  0.00    -0.049 C 
ENDROOT
BRANCH   2   3
ATOM      3  C   UNL A   1      45.372 -18.603 -36.014  0.00  0.00    -0.009 A 
ATOM      4  C   UNL A   1      46.525 -17.823 -35.934  0.00  0.00    -0.052 A 
ATOM      5  C   UNL A   1      47.268 -17.561 -37.080  0.00  0.00    -0.045 A 
ATOM      6  C   UNL A   1      46.857 -18.092 -38.295  0.00  0.00    +0.005 A 
ATOM      7  N   UNL A   1      45.749 -18.867 -38.368  0.00  0.00    -0.348 N 
ATOM      8  C   UNL A   1      45.014 -19.127 -37.259  0.00  0.00    +0.012 A 
BRANCH   7   9
ATOM      9  C   UNL A   1      45.331 -19.423 -39.680  0.00  0.00    +0.048 C 
BRANCH   9  10
ATOM     10  C   UNL A   1      46.410 -20.290 -40.275  0.00  0.00    -0.028 A 
ATOM     11  C   UNL A   1      47.164 -19.850 -41.375  0.00  0.00    -0.057 A 
ATOM     12  C   UNL A   1      48.154 -20.665 -41.924  0.00  0.00    -0.061 A 
ATOM     13  C   UNL A   1      48.407 -21.921 -41.378  0.00  0.00    -0.062 A 
ATOM     14  C   UNL A   1      47.674 -22.364 -40.279  0.00  0.00    -0.061 A 
ATOM     15  C   UNL A   1      46.682 -21.553 -39.728  0.00  0.00    -0.057 A 
ENDBRANCH   9  10
ENDBRANCH   7   9
ENDBRANCH   2   3
BRANCH   1  17
ATOM     16  O   UNL A   1      42.763 -19.386 -32.696  0.00  0.00    -0.284 OA
ATOM     17  C   UNL A   1      42.585 -20.048 -33.720  0.00  0.00    +0.221 C 
BRANCH  17  18
ATOM     18  C   UNL A   1      41.577 -21.086 -33.810  0.00  0.00    +0.176 A 
ATOM     19  C   UNL A   1      41.025 -21.872 -32.813  0.00  0.00    -0.005 A 
ATOM     20  C   UNL A   1      40.051 -22.701 -33.425  0.00  0.00    +0.022 A 
ATOM     21  C   UNL A   1      39.161 -23.696 -32.984  0.00  0.00    -0.037 A 
ATOM     22  C   UNL A   1      38.320 -24.297 -33.930  0.00  0.00    +0.019 A 
ATOM     23 BR   UNL A   1      37.110 -25.640 -33.366  0.00  0.00    -0.050 Br
ATOM     24  C   UNL A   1      38.351 -23.929 -35.277  0.00  0.00    -0.044 A 
ATOM     25  C   UNL A   1      39.232 -22.939 -35.730  0.00  0.00    -0.018 A 
ATOM     26  C   UNL A   1      40.059 -22.358 -34.771  0.00  0.00    +0.136 A 
ATOM     27  O   UNL A   1      40.979 -21.382 -35.007  0.00  0.00    -0.452 OA
ENDBRANCH  17  18
ENDBRANCH   1  17
TORSDOF 5
ENDMDL
MODEL 13
REMARK VINA RESULT:    -7.720      4.080     10.177
REMARK INTER + INTRA:         -10.134
REMARK INTER:                  -9.667
REMARK INTRA:                  -0.467
REMARK UNBOUND:                -0.157
REMARK  Name = cpd325.pdb
REMARK  5 active torsions:
REMARK  status: ('A' for Active; 'I' for Inactive)
REMARK    1  A    between atoms: C_2  and  C_3
REMARK    2  A    between atoms: C_2  and  C_18
REMARK    3  A    between atoms: C_4  and  C_5
REMARK    4  A    between atoms: N_9  and  C_10
REMARK    5  A    between atoms: C_10  and  C_11
REMARK                            x       y       z     vdW  Elec       q    Type
REMARK                         _______ _______ _______ _____ _____    ______ ____
ROOT
ATOM      1  C   UNL A   1      35.010 -34.957 -30.230  0.00  0.00    -0.011 C 
ATOM      2  C   UNL A   1      33.817 -34.684 -29.677  0.00  0.00    -0.049 C 
ENDROOT
BRANCH   2   3
ATOM      3  C   UNL A   1      33.189 -33.356 -29.716  0.00  0.00    -0.009 A 
ATOM      4  C   UNL A   1      33.751 -32.282 -30.407  0.00  0.00    -0.052 A 
ATOM      5  C   UNL A   1      33.101 -31.053 -30.429  0.00  0.00    -0.045 A 
ATOM      6  C   UNL A   1      31.887 -30.912 -29.768  0.00  0.00    +0.005 A 
ATOM      7  N   UNL A   1      31.333 -31.961 -29.116  0.00  0.00    -0.348 N 
ATOM      8  C   UNL A   1      31.957 -33.164 -29.084  0.00  0.00    +0.012 A 
BRANCH   7   9
ATOM      9  C   UNL A   1      30.034 -31.784 -28.419  0.00  0.00    +0.048 C 
BRANCH   9  10
ATOM     10  C   UNL A   1      28.888 -31.752 -29.396  0.00  0.00    -0.028 A 
ATOM     11  C   UNL A   1      28.604 -30.593 -30.137  0.00  0.00    -0.057 A 
ATOM     12  C   UNL A   1      27.535 -30.572 -31.033  0.00  0.00    -0.061 A 
ATOM     13  C   UNL A   1      26.743 -31.705 -31.203  0.00  0.00    -0.062 A 
ATOM     14  C   UNL A   1      27.022 -32.864 -30.482  0.00  0.00    -0.061 A 
ATOM     15  C   UNL A   1      28.089 -32.890 -29.585  0.00  0.00    -0.057 A 
ENDBRANCH   9  10
ENDBRANCH   7   9
ENDBRANCH   2   3
BRANCH   1  17
ATOM     16  O   UNL A   1      34.951 -37.265 -30.031  0.00  0.00    -0.284 OA
ATOM     17  C   UNL A   1      35.680 -36.294 -30.245  0.00  0.00    +0.221 C 
BRANCH  17  18
ATOM     18  C   UNL A   1      37.098 -36.430 -30.512  0.00  0.00    +0.176 A 
ATOM     19  C   UNL A   1      38.078 -37.076 -29.780  0.00  0.00    -0.005 A 
ATOM     20  C   UNL A   1      39.293 -36.948 -30.501  0.00  0.00    +0.022 A 
ATOM     21  C   UNL A   1      40.622 -37.365 -30.311  0.00  0.00    -0.037 A 
ATOM     22  C   UNL A   1      41.565 -37.038 -31.294  0.00  0.00    +0.019 A 
ATOM     23 BR   UNL A   1      43.362 -37.587 -31.065  0.00  0.00    -0.050 Br
ATOM     24  C   UNL A   1      41.211 -36.320 -32.439  0.00  0.00    -0.044 A 
ATOM     25  C   UNL A   1      39.892 -35.899 -32.642  0.00  0.00    -0.018 A 
ATOM     26  C   UNL A   1      38.973 -36.234 -31.649  0.00  0.00    +0.136 A 
ATOM     27  O   UNL A   1      37.648 -35.920 -31.660  0.00  0.00    -0.452 OA
ENDBRANCH  17  18
ENDBRANCH   1  17
TORSDOF 5
ENDMDL
MODEL 14
REMARK VINA RESULT:    -7.632      4.773      8.068
REMARK INTER + INTRA:         -10.020
REMARK INTER:                  -9.152
REMARK INTRA:                  -0.868
REMARK UNBOUND:                -0.157
REMARK  Name = cpd325.pdb
REMARK  5 active torsions:
REMARK  status: ('A' for Active; 'I' for Inactive)
REMARK    1  A    between atoms: C_2  and  C_3
REMARK    2  A    between atoms: C_2  and  C_18
REMARK    3  A    between atoms: C_4  and  C_5
REMARK    4  A    between atoms: N_9  and  C_10
REMARK    5  A    between atoms: C_10  and  C_11
REMARK                            x       y       z     vdW  Elec       q    Type
REMARK                         _______ _______ _______ _____ _____    ______ ____
ROOT
ATOM      1  C   UNL A   1      34.195 -37.018 -28.079  0.00  0.00    -0.011 C 
ATOM      2  C   UNL A   1      34.129 -36.673 -26.783  0.00  0.00    -0.049 C 
ENDROOT
BRANCH   2   3
ATOM      3  C   UNL A   1      33.704 -37.594 -25.719  0.00  0.00    -0.009 A 
ATOM      4  C   UNL A   1      33.873 -37.301 -24.366  0.00  0.00    -0.052 A 
ATOM      5  C   UNL A   1      33.431 -38.199 -23.400  0.00  0.00    -0.045 A 
ATOM      6  C   UNL A   1      32.814 -39.378 -23.798  0.00  0.00    +0.005 A 
ATOM      7  N   UNL A   1      32.632 -39.650 -25.112  0.00  0.00    -0.348 N 
ATOM      8  C   UNL A   1      33.061 -38.786 -26.063  0.00  0.00    +0.012 A 
BRANCH   7   9
ATOM      9  C   UNL A   1      31.969 -40.918 -25.510  0.00  0.00    +0.048 C 
BRANCH   9  10
ATOM     10  C   UNL A   1      32.825 -41.708 -26.464  0.00  0.00    -0.028 A 
ATOM     11  C   UNL A   1      34.032 -42.288 -26.039  0.00  0.00    -0.057 A 
ATOM     12  C   UNL A   1      34.823 -43.010 -26.934  0.00  0.00    -0.061 A 
ATOM     13  C   UNL A   1      34.417 -43.166 -28.256  0.00  0.00    -0.062 A 
ATOM     14  C   UNL A   1      33.216 -42.605 -28.687  0.00  0.00    -0.061 A 
ATOM     15  C   UNL A   1      32.423 -41.882 -27.797  0.00  0.00    -0.057 A 
ENDBRANCH   9  10
ENDBRANCH   7   9
ENDBRANCH   2   3
BRANCH   1  17
ATOM     16  O   UNL A   1      33.807 -35.342 -29.631  0.00  0.00    -0.284 OA
ATOM     17  C   UNL A   1      34.647 -36.132 -29.197  0.00  0.00    +0.221 C 
BRANCH  17  18
ATOM     18  C   UNL A   1      35.998 -36.194 -29.716  0.00  0.00    +0.176 A 
ATOM     19  C   UNL A   1      37.100 -36.882 -29.235  0.00  0.00    -0.005 A 
ATOM     20  C   UNL A   1      38.169 -36.642 -30.135  0.00  0.00    +0.022 A 
ATOM     21  C   UNL A   1      39.516 -37.035 -30.221  0.00  0.00    -0.037 A 
ATOM     22  C   UNL A   1      40.271 -36.579 -31.310  0.00  0.00    +0.019 A 
ATOM     23 BR   UNL A   1      42.087 -37.092 -31.452  0.00  0.00    -0.050 Br
ATOM     24  C   UNL A   1      39.714 -35.757 -32.294  0.00  0.00    -0.044 A 
ATOM     25  C   UNL A   1      38.374 -35.359 -32.222  0.00  0.00    -0.018 A 
ATOM     26  C   UNL A   1      37.646 -35.824 -31.129  0.00  0.00    +0.136 A 
ATOM     27  O   UNL A   1      36.335 -35.552 -30.879  0.00  0.00    -0.452 OA
ENDBRANCH  17  18
ENDBRANCH   1  17
TORSDOF 5
ENDMDL
MODEL 15
REMARK VINA RESULT:    -7.563      5.953      7.951
REMARK INTER + INTRA:          -9.930
REMARK INTER:                  -9.529
REMARK INTRA:                  -0.401
REMARK UNBOUND:                -0.157
REMARK  Name = cpd325.pdb
REMARK  5 active torsions:
REMARK  status: ('A' for Active; 'I' for Inactive)
REMARK    1  A    between atoms: C_2  and  C_3
REMARK    2  A    between atoms: C_2  and  C_18
REMARK    3  A    between atoms: C_4  and  C_5
REMARK    4  A    between atoms: N_9  and  C_10
REMARK    5  A    between atoms: C_10  and  C_11
REMARK                            x       y       z     vdW  Elec       q    Type
REMARK                         _______ _______ _______ _____ _____    ______ ____
ROOT
ATOM      1  C   UNL A   1      33.360 -37.278 -26.349  0.00  0.00    -0.011 C 
ATOM      2  C   UNL A   1      34.606 -37.757 -26.481  0.00  0.00    -0.049 C 
ENDROOT
BRANCH   2   3
ATOM      3  C   UNL A   1      35.234 -38.039 -27.781  0.00  0.00    -0.009 A 
ATOM      4  C   UNL A   1      34.503 -38.481 -28.884  0.00  0.00    -0.052 A 
ATOM      5  C   UNL A   1      35.146 -38.710 -30.096  0.00  0.00    -0.045 A 
ATOM      6  C   UNL A   1      36.512 -38.484 -30.196  0.00  0.00    +0.005 A 
ATOM      7  N   UNL A   1      37.215 -38.034 -29.131  0.00  0.00    -0.348 N 
ATOM      8  C   UNL A   1      36.603 -37.810 -27.943  0.00  0.00    +0.012 A 
BRANCH   7   9
ATOM      9  C   UNL A   1      38.676 -37.800 -29.265  0.00  0.00    +0.048 C 
BRANCH   9  10
ATOM     10  C   UNL A   1      38.974 -36.833 -30.381  0.00  0.00    -0.028 A 
ATOM     11  C   UNL A   1      38.009 -35.907 -30.809  0.00  0.00    -0.057 A 
ATOM     12  C   UNL A   1      38.293 -35.021 -31.850  0.00  0.00    -0.061 A 
ATOM     13  C   UNL A   1      39.540 -35.047 -32.468  0.00  0.00    -0.062 A 
ATOM     14  C   UNL A   1      40.510 -35.953 -32.045  0.00  0.00    -0.061 A 
ATOM     15  C   UNL A   1      40.230 -36.841 -31.005  0.00  0.00    -0.057 A 
ENDBRANCH   9  10
ENDBRANCH   7   9
ENDBRANCH   2   3
BRANCH   1  17
ATOM     16  O   UNL A   1      31.750 -36.147 -25.123  0.00  0.00    -0.284 OA
ATOM     17  C   UNL A   1      32.685 -36.947 -25.055  0.00  0.00    +0.221 C 
BRANCH  17  18
ATOM     18  C   UNL A   1      33.101 -37.552 -23.806  0.00  0.00    +0.176 A 
ATOM     19  C   UNL A   1      32.884 -38.833 -23.327  0.00  0.00    -0.005 A 
ATOM     20  C   UNL A   1      33.538 -38.928 -22.073  0.00  0.00    +0.022 A 
ATOM     21  C   UNL A   1      33.699 -39.927 -21.097  0.00  0.00    -0.037 A 
ATOM     22  C   UNL A   1      34.454 -39.624 -19.956  0.00  0.00    +0.019 A 
ATOM     23 BR   UNL A   1      34.686 -40.951 -18.626  0.00  0.00    -0.050 Br
ATOM     24  C   UNL A   1      35.041 -38.369 -19.779  0.00  0.00    -0.044 A 
ATOM     25  C   UNL A   1      34.891 -37.364 -20.742  0.00  0.00    -0.018 A 
ATOM     26  C   UNL A   1      34.133 -37.689 -21.866  0.00  0.00    +0.136 A 
ATOM     27  O   UNL A   1      33.873 -36.856 -22.911  0.00  0.00    -0.452 OA
ENDBRANCH  17  18
ENDBRANCH   1  17
TORSDOF 5
ENDMDL
MODEL 16
REMARK VINA RESULT:    -7.497     16.353     18.060
REMARK INTER + INTRA:          -9.845
REMARK INTER:                  -9.187
REMARK INTRA:                  -0.658
REMARK UNBOUND:                -0.157
REMARK  Name = cpd325.pdb
REMARK  5 active torsions:
REMARK  status: ('A' for Active; 'I' for Inactive)
REMARK    1  A    between atoms: C_2  and  C_3
REMARK    2  A    between atoms: C_2  and  C_18
REMARK    3  A    between atoms: C_4  and  C_5
REMARK    4  A    between atoms: N_9  and  C_10
REMARK    5  A    between atoms: C_10  and  C_11
REMARK                            x       y       z     vdW  Elec       q    Type
REMARK                         _______ _______ _______ _____ _____    ______ ____
ROOT
ATOM      1  C   UNL A   1      42.454 -21.246 -37.986  0.00  0.00    -0.011 C 
ATOM      2  C   UNL A   1      43.317 -20.962 -36.998  0.00  0.00    -0.049 C 
ENDROOT
BRANCH   2   3
ATOM      3  C   UNL A   1      44.551 -20.187 -37.195  0.00  0.00    -0.009 A 
ATOM      4  C   UNL A   1      45.388 -19.832 -36.138  0.00  0.00    -0.052 A 
ATOM      5  C   UNL A   1      46.555 -19.117 -36.386  0.00  0.00    -0.045 A 
ATOM      6  C   UNL A   1      46.878 -18.772 -37.691  0.00  0.00    +0.005 A 
ATOM      7  N   UNL A   1      46.075 -19.136 -38.719  0.00  0.00    -0.348 N 
ATOM      8  C   UNL A   1      44.934 -19.830 -38.491  0.00  0.00    +0.012 A 
BRANCH   7   9
ATOM      9  C   UNL A   1      46.445 -18.755 -40.106  0.00  0.00    +0.048 C 
BRANCH   9  10
ATOM     10  C   UNL A   1      45.917 -19.750 -41.105  0.00  0.00    -0.028 A 
ATOM     11  C   UNL A   1      44.913 -19.391 -42.019  0.00  0.00    -0.057 A 
ATOM     12  C   UNL A   1      44.424 -20.324 -42.935  0.00  0.00    -0.061 A 
ATOM     13  C   UNL A   1      44.935 -21.618 -42.953  0.00  0.00    -0.062 A 
ATOM     14  C   UNL A   1      45.940 -21.984 -42.060  0.00  0.00    -0.061 A 
ATOM     15  C   UNL A   1      46.431 -21.055 -41.141  0.00  0.00    -0.057 A 
ENDBRANCH   9  10
ENDBRANCH   7   9
ENDBRANCH   2   3
BRANCH   1  17
ATOM     16  O   UNL A   1      41.022 -22.963 -38.595  0.00  0.00    -0.284 OA
ATOM     17  C   UNL A   1      41.173 -22.005 -37.835  0.00  0.00    +0.221 C 
BRANCH  17  18
ATOM     18  C   UNL A   1      40.186 -21.638 -36.840  0.00  0.00    +0.176 A 
ATOM     19  C   UNL A   1      39.456 -20.469 -36.708  0.00  0.00    -0.005 A 
ATOM     20  C   UNL A   1      38.598 -20.636 -35.592  0.00  0.00    +0.022 A 
ATOM     21  C   UNL A   1      37.631 -19.848 -34.941  0.00  0.00    -0.037 A 
ATOM     22  C   UNL A   1      36.966 -20.394 -33.836  0.00  0.00    +0.019 A 
ATOM     23 BR   UNL A   1      35.660 -19.356 -32.941  0.00  0.00    -0.050 Br
ATOM     24  C   UNL A   1      37.243 -21.685 -33.380  0.00  0.00    -0.044 A 
ATOM     25  C   UNL A   1      38.201 -22.481 -34.017  0.00  0.00    -0.018 A 
ATOM     26  C   UNL A   1      38.850 -21.915 -35.112  0.00  0.00    +0.136 A 
ATOM     27  O   UNL A   1      39.808 -22.524 -35.865  0.00  0.00    -0.452 OA
ENDBRANCH  17  18
ENDBRANCH   1  17
TORSDOF 5
ENDMDL
MODEL 17
REMARK VINA RESULT:    -7.481     17.869     19.712
REMARK INTER + INTRA:          -9.825
REMARK INTER:                  -9.527
REMARK INTRA:                  -0.299
REMARK UNBOUND:                -0.157
REMARK  Name = cpd325.pdb
REMARK  5 active torsions:
REMARK  status: ('A' for Active; 'I' for Inactive)
REMARK    1  A    between atoms: C_2  and  C_3
REMARK    2  A    between atoms: C_2  and  C_18
REMARK    3  A    between atoms: C_4  and  C_5
REMARK    4  A    between atoms: N_9  and  C_10
REMARK    5  A    between atoms: C_10  and  C_11
REMARK                            x       y       z     vdW  Elec       q    Type
REMARK                         _______ _______ _______ _____ _____    ______ ____
ROOT
ATOM      1  C   UNL A   1      45.082 -18.279 -34.125  0.00  0.00    -0.011 C 
ATOM      2  C   UNL A   1      44.846 -17.367 -35.082  0.00  0.00    -0.049 C 
ENDROOT
BRANCH   2   3
ATOM      3  C   UNL A   1      45.610 -17.291 -36.336  0.00  0.00    -0.009 A 
ATOM      4  C   UNL A   1      46.214 -16.113 -36.774  0.00  0.00    -0.052 A 
ATOM      5  C   UNL A   1      46.944 -16.104 -37.958  0.00  0.00    -0.045 A 
ATOM      6  C   UNL A   1      47.074 -17.279 -38.686  0.00  0.00    +0.005 A 
ATOM      7  N   UNL A   1      46.505 -18.427 -38.249  0.00  0.00    -0.348 N 
ATOM      8  C   UNL A   1      45.788 -18.449 -37.099  0.00  0.00    +0.012 A 
BRANCH   7   9
ATOM      9  C   UNL A   1      46.660 -19.670 -39.047  0.00  0.00    +0.048 C 
BRANCH   9  10
ATOM     10  C   UNL A   1      45.862 -19.603 -40.323  0.00  0.00    -0.028 A 
ATOM     11  C   UNL A   1      45.073 -18.480 -40.622  0.00  0.00    -0.057 A 
ATOM     12  C   UNL A   1      44.331 -18.432 -41.803  0.00  0.00    -0.061 A 
ATOM     13  C   UNL A   1      44.372 -19.498 -42.698  0.00  0.00    -0.062 A 
ATOM     14  C   UNL A   1      45.160 -20.613 -42.418  0.00  0.00    -0.061 A 
ATOM     15  C   UNL A   1      45.903 -20.665 -41.238  0.00  0.00    -0.057 A 
ENDBRANCH   9  10
ENDBRANCH   7   9
ENDBRANCH   2   3
BRANCH   1  17
ATOM     16  O   UNL A   1      44.943 -18.166 -31.814  0.00  0.00    -0.284 OA
ATOM     17  C   UNL A   1      44.317 -18.418 -32.846  0.00  0.00    +0.221 C 
BRANCH  17  18
ATOM     18  C   UNL A   1      42.922 -18.808 -32.835  0.00  0.00    +0.176 A 
ATOM     19  C   UNL A   1      42.351 -20.056 -33.017  0.00  0.00    -0.005 A 
ATOM     20  C   UNL A   1      40.949 -19.901 -32.867  0.00  0.00    +0.022 A 
ATOM     21  C   UNL A   1      39.832 -20.753 -32.930  0.00  0.00    -0.037 A 
ATOM     22  C   UNL A   1      38.565 -20.200 -32.705  0.00  0.00    +0.019 A 
ATOM     23 BR   UNL A   1      37.043 -21.324 -32.783  0.00  0.00    -0.050 Br
ATOM     24  C   UNL A   1      38.397 -18.842 -32.423  0.00  0.00    -0.044 A 
ATOM     25  C   UNL A   1      39.500 -17.982 -32.357  0.00  0.00    -0.018 A 
ATOM     26  C   UNL A   1      40.749 -18.555 -32.586  0.00  0.00    +0.136 A 
ATOM     27  O   UNL A   1      41.938 -17.892 -32.565  0.00  0.00    -0.452 OA
ENDBRANCH  17  18
ENDBRANCH   1  17
TORSDOF 5
ENDMDL
MODEL 18
REMARK VINA RESULT:    -7.419     16.353     18.155
REMARK INTER + INTRA:          -9.745
REMARK INTER:                  -9.314
REMARK INTRA:                  -0.430
REMARK UNBOUND:                -0.157
REMARK  Name = cpd325.pdb
REMARK  5 active torsions:
REMARK  status: ('A' for Active; 'I' for Inactive)
REMARK    1  A    between atoms: C_2  and  C_3
REMARK    2  A    between atoms: C_2  and  C_18
REMARK    3  A    between atoms: C_4  and  C_5
REMARK    4  A    between atoms: N_9  and  C_10
REMARK    5  A    between atoms: C_10  and  C_11
REMARK                            x       y       z     vdW  Elec       q    Type
REMARK                         _______ _______ _______ _____ _____    ______ ____
ROOT
ATOM      1  C   UNL A   1      42.048 -21.475 -38.479  0.00  0.00    -0.011 C 
ATOM      2  C   UNL A   1      42.107 -20.222 -38.956  0.00  0.00    -0.049 C 
ENDROOT
BRANCH   2   3
ATOM      3  C   UNL A   1      43.332 -19.617 -39.499  0.00  0.00    -0.009 A 
ATOM      4  C   UNL A   1      43.331 -18.390 -40.162  0.00  0.00    -0.052 A 
ATOM      5  C   UNL A   1      44.523 -17.855 -40.635  0.00  0.00    -0.045 A 
ATOM      6  C   UNL A   1      45.710 -18.546 -40.430  0.00  0.00    +0.005 A 
ATOM      7  N   UNL A   1      45.713 -19.726 -39.767  0.00  0.00    -0.348 N 
ATOM      8  C   UNL A   1      44.557 -20.262 -39.303  0.00  0.00    +0.012 A 
BRANCH   7   9
ATOM      9  C   UNL A   1      46.996 -20.445 -39.560  0.00  0.00    +0.048 C 
BRANCH   9  10
ATOM     10  C   UNL A   1      47.166 -21.558 -40.561  0.00  0.00    -0.028 A 
ATOM     11  C   UNL A   1      48.322 -22.355 -40.563  0.00  0.00    -0.057 A 
ATOM     12  C   UNL A   1      48.474 -23.378 -41.501  0.00  0.00    -0.061 A 
ATOM     13  C   UNL A   1      47.474 -23.620 -42.439  0.00  0.00    -0.062 A 
ATOM     14  C   UNL A   1      46.317 -22.843 -42.439  0.00  0.00    -0.061 A 
ATOM     15  C   UNL A   1      46.161 -21.819 -41.505  0.00  0.00    -0.057 A 
ENDBRANCH   9  10
ENDBRANCH   7   9
ENDBRANCH   2   3
BRANCH   1  17
ATOM     16  O   UNL A   1      40.540 -23.235 -38.450  0.00  0.00    -0.284 OA
ATOM     17  C   UNL A   1      40.823 -22.148 -37.943  0.00  0.00    +0.221 C 
BRANCH  17  18
ATOM     18  C   UNL A   1      40.037 -21.557 -36.880  0.00  0.00    +0.176 A 
ATOM     19  C   UNL A   1      38.895 -20.778 -36.953  0.00  0.00    -0.005 A 
ATOM     20  C   UNL A   1      38.497 -20.492 -35.622  0.00  0.00    +0.022 A 
ATOM     21  C   UNL A   1      37.451 -19.771 -35.019  0.00  0.00    -0.037 A 
ATOM     22  C   UNL A   1      37.394 -19.732 -33.620  0.00  0.00    +0.019 A 
ATOM     23 BR   UNL A   1      35.997 -18.768 -32.781  0.00  0.00    -0.050 Br
ATOM     24  C   UNL A   1      38.341 -20.388 -32.830  0.00  0.00    -0.044 A 
ATOM     25  C   UNL A   1      39.387 -21.110 -33.415  0.00  0.00    -0.018 A 
ATOM     26  C   UNL A   1      39.423 -21.132 -34.808  0.00  0.00    +0.136 A 
ATOM     27  O   UNL A   1      40.355 -21.777 -35.564  0.00  0.00    -0.452 OA
ENDBRANCH  17  18
ENDBRANCH   1  17
TORSDOF 5
ENDMDL
MODEL 19
REMARK VINA RESULT:    -7.222     16.994     18.804
REMARK INTER + INTRA:          -9.490
REMARK INTER:                  -8.989
REMARK INTRA:                  -0.501
REMARK UNBOUND:                -0.157
REMARK  Name = cpd325.pdb
REMARK  5 active torsions:
REMARK  status: ('A' for Active; 'I' for Inactive)
REMARK    1  A    between atoms: C_2  and  C_3
REMARK    2  A    between atoms: C_2  and  C_18
REMARK    3  A    between atoms: C_4  and  C_5
REMARK    4  A    between atoms: N_9  and  C_10
REMARK    5  A    between atoms: C_10  and  C_11
REMARK                            x       y       z     vdW  Elec       q    Type
REMARK                         _______ _______ _______ _____ _____    ______ ____
ROOT
ATOM      1  C   UNL A   1      44.770 -19.351 -35.798  0.00  0.00    -0.011 C 
ATOM      2  C   UNL A   1      44.402 -19.875 -36.978  0.00  0.00    -0.049 C 
ENDROOT
BRANCH   2   3
ATOM      3  C   UNL A   1      44.866 -19.361 -38.275  0.00  0.00    -0.009 A 
ATOM      4  C   UNL A   1      45.389 -18.076 -38.427  0.00  0.00    -0.052 A 
ATOM      5  C   UNL A   1      45.835 -17.651 -39.673  0.00  0.00    -0.045 A 
ATOM      6  C   UNL A   1      45.764 -18.519 -40.755  0.00  0.00    +0.005 A 
ATOM      7  N   UNL A   1      45.277 -19.772 -40.601  0.00  0.00    -0.348 N 
ATOM      8  C   UNL A   1      44.836 -20.199 -39.393  0.00  0.00    +0.012 A 
BRANCH   7   9
ATOM      9  C   UNL A   1      45.213 -20.680 -41.775  0.00  0.00    +0.048 C 
BRANCH   9  10
ATOM     10  C   UNL A   1      46.354 -21.664 -41.767  0.00  0.00    -0.028 A 
ATOM     11  C   UNL A   1      47.459 -21.480 -40.920  0.00  0.00    -0.057 A 
ATOM     12  C   UNL A   1      48.515 -22.394 -40.928  0.00  0.00    -0.061 A 
ATOM     13  C   UNL A   1      48.475 -23.500 -41.772  0.00  0.00    -0.062 A 
ATOM     14  C   UNL A   1      47.378 -23.700 -42.608  0.00  0.00    -0.061 A 
ATOM     15  C   UNL A   1      46.322 -22.789 -42.605  0.00  0.00    -0.057 A 
ENDBRANCH   9  10
ENDBRANCH   7   9
ENDBRANCH   2   3
BRANCH   1  17
ATOM     16  O   UNL A   1      45.255 -20.272 -33.727  0.00  0.00    -0.284 OA
ATOM     17  C   UNL A   1      44.351 -19.852 -34.452  0.00  0.00    +0.221 C 
BRANCH  17  18
ATOM     18  C   UNL A   1      42.965 -19.824 -34.030  0.00  0.00    +0.176 A 
ATOM     19  C   UNL A   1      42.022 -18.818 -34.158  0.00  0.00    -0.005 A 
ATOM     20  C   UNL A   1      40.807 -19.312 -33.619  0.00  0.00    +0.022 A 
ATOM     21  C   UNL A   1      39.506 -18.807 -33.447  0.00  0.00    -0.037 A 
ATOM     22  C   UNL A   1      38.545 -19.641 -32.860  0.00  0.00    +0.019 A 
ATOM     23 BR   UNL A   1      36.785 -18.987 -32.617  0.00  0.00    -0.050 Br
ATOM     24  C   UNL A   1      38.853 -20.941 -32.453  0.00  0.00    -0.044 A 
ATOM     25  C   UNL A   1      40.144 -21.457 -32.618  0.00  0.00    -0.018 A 
ATOM     26  C   UNL A   1      41.082 -20.609 -33.202  0.00  0.00    +0.136 A 
ATOM     27  O   UNL A   1      42.384 -20.921 -33.450  0.00  0.00    -0.452 OA
ENDBRANCH  17  18
ENDBRANCH   1  17
TORSDOF 5
ENDMDL
MODEL 20
REMARK VINA RESULT:    -7.165     17.425     19.226
REMARK INTER + INTRA:          -9.417
REMARK INTER:                  -8.729
REMARK INTRA:                  -0.687
REMARK UNBOUND:                -0.157
REMARK  Name = cpd325.pdb
REMARK  5 active torsions:
REMARK  status: ('A' for Active; 'I' for Inactive)
REMARK    1  A    between atoms: C_2  and  C_3
REMARK    2  A    between atoms: C_2  and  C_18
REMARK    3  A    between atoms: C_4  and  C_5
REMARK    4  A    between atoms: N_9  and  C_10
REMARK    5  A    between atoms: C_10  and  C_11
REMARK                            x       y       z     vdW  Elec       q    Type
REMARK                         _______ _______ _______ _____ _____    ______ ____
ROOT
ATOM      1  C   UNL A   1      44.557 -17.711 -34.373  0.00  0.00    -0.011 C 
ATOM      2  C   UNL A   1      45.192 -18.504 -35.250  0.00  0.00    -0.049 C 
ENDROOT
BRANCH   2   3
ATOM      3  C   UNL A   1      45.736 -18.028 -36.530  0.00  0.00    -0.009 A 
ATOM      4  C   UNL A   1      46.750 -17.073 -36.603  0.00  0.00    -0.052 A 
ATOM      5  C   UNL A   1      47.243 -16.676 -37.841  0.00  0.00    -0.045 A 
ATOM      6  C   UNL A   1      46.724 -17.246 -38.996  0.00  0.00    +0.005 A 
ATOM      7  N   UNL A   1      45.754 -18.188 -38.922  0.00  0.00    -0.348 N 
ATOM      8  C   UNL A   1      45.263 -18.582 -37.723  0.00  0.00    +0.012 A 
BRANCH   7   9
ATOM      9  C   UNL A   1      45.217 -18.782 -40.173  0.00  0.00    +0.048 C 
BRANCH   9  10
ATOM     10  C   UNL A   1      45.966 -20.033 -40.550  0.00  0.00    -0.028 A 
ATOM     11  C   UNL A   1      45.533 -21.294 -40.107  0.00  0.00    -0.057 A 
ATOM     12  C   UNL A   1      46.240 -22.446 -40.454  0.00  0.00    -0.061 A 
ATOM     13  C   UNL A   1      47.379 -22.354 -41.250  0.00  0.00    -0.062 A 
ATOM     14  C   UNL A   1      47.811 -21.110 -41.706  0.00  0.00    -0.061 A 
ATOM     15  C   UNL A   1      47.109 -19.956 -41.360  0.00  0.00    -0.057 A 
ENDBRANCH   9  10
ENDBRANCH   7   9
ENDBRANCH   2   3
BRANCH   1  17
ATOM     16  O   UNL A   1      44.726 -17.910 -32.070  0.00  0.00    -0.284 OA
ATOM     17  C   UNL A   1      44.010 -18.137 -33.047  0.00  0.00    +0.221 C 
BRANCH  17  18
ATOM     18  C   UNL A   1      42.708 -18.762 -32.928  0.00  0.00    +0.176 A 
ATOM     19  C   UNL A   1      41.447 -18.195 -32.988  0.00  0.00    -0.005 A 
ATOM     20  C   UNL A   1      40.507 -19.249 -32.857  0.00  0.00    +0.022 A 
ATOM     21  C   UNL A   1      39.105 -19.347 -32.836  0.00  0.00    -0.037 A 
ATOM     22  C   UNL A   1      38.532 -20.618 -32.693  0.00  0.00    +0.019 A 
ATOM     23 BR   UNL A   1      36.646 -20.780 -32.661  0.00  0.00    -0.050 Br
ATOM     24  C   UNL A   1      39.319 -21.767 -32.575  0.00  0.00    -0.044 A 
ATOM     25  C   UNL A   1      40.716 -21.684 -32.595  0.00  0.00    -0.018 A 
ATOM     26  C   UNL A   1      41.261 -20.410 -32.736  0.00  0.00    +0.136 A 
ATOM     27  O   UNL A   1      42.591 -20.119 -32.780  0.00  0.00    -0.452 OA
ENDBRANCH  17  18
ENDBRANCH   1  17
TORSDOF 5
ENDMDL
