REMARK  Name = cpd350.pdb
REMARK  5 active torsions:
REMARK  status: ('A' for Active; 'I' for Inactive)
REMARK    1  A    between atoms: C_1  and  C_2
REMARK    2  A    between atoms: C_5  and  C_6
REMARK    3  A    between atoms: C_6  and  N_7
REMARK    4  A    between atoms: C_10  and  C_11
REMARK    5  A    between atoms: C_11  and  N_12
REMARK                            x       y       z     vdW  Elec       q    Type
REMARK                         _______ _______ _______ _____ _____    ______ ____
ROOT
ATOM      1  N   UNL A   1      -4.332   3.736  -0.376  0.00  0.00    -0.349 N 
ATOM      2  C   UNL A   1      -3.917   4.028   0.877  0.00  0.00    +0.005 A 
ATOM      3  C   UNL A   1      -2.937   3.260   1.499  0.00  0.00    -0.041 A 
ATOM      4  C   UNL A   1      -2.374   2.168   0.833  0.00  0.00    -0.025 A 
ATOM      5  C   UNL A   1      -2.801   1.913  -0.475  0.00  0.00    -0.041 A 
ATOM      6  C   UNL A   1      -3.791   2.699  -1.054  0.00  0.00    +0.005 A 
ENDROOT
BRANCH   1   7
ATOM      7  C   UNL A   1      -5.391   4.556  -1.017  0.00  0.00    +0.048 C 
BRANCH   7  12
ATOM      8  C   UNL A   1     -10.513   1.790  -0.776  0.00  0.00    -0.040 C 
ATOM      9  C   UNL A   1      -9.181   2.481  -0.833  0.00  0.00    -0.050 A 
ATOM     10  C   UNL A   1      -8.652   3.091   0.308  0.00  0.00    -0.059 A 
ATOM     11  C   UNL A   1      -7.431   3.766   0.251  0.00  0.00    -0.057 A 
ATOM     12  C   UNL A   1      -6.720   3.851  -0.955  0.00  0.00    -0.028 A 
ATOM     13  C   UNL A   1      -7.263   3.255  -2.103  0.00  0.00    -0.057 A 
ATOM     14  C   UNL A   1      -8.485   2.582  -2.041  0.00  0.00    -0.059 A 
ENDBRANCH   7  12
ENDBRANCH   1   7
BRANCH   4  15
ATOM     15  C   UNL A   1      -1.306   1.339   1.525  0.00  0.00    +0.049 C 
BRANCH  15  16
ATOM     16  N   UNL A   1      -1.291  -0.054   1.090  0.00  0.00    -0.339 N 
ATOM     17  C   UNL A   1      -0.341  -0.632   0.285  0.00  0.00    +0.023 A 
ATOM     18  C   UNL A   1      -0.684  -1.957   0.100  0.00  0.00    -0.019 A 
ATOM     19  C   UNL A   1      -1.895  -2.194   0.804  0.00  0.00    +0.003 A 
ATOM     20  C   UNL A   1      -2.719  -3.325   0.974  0.00  0.00    -0.052 A 
ATOM     21  C   UNL A   1      -3.870  -3.230   1.762  0.00  0.00    -0.061 A 
ATOM     22  C   UNL A   1      -4.205  -2.030   2.380  0.00  0.00    -0.060 A 
ATOM     23  C   UNL A   1      -3.405  -0.893   2.228  0.00  0.00    -0.038 A 
ATOM     24  C   UNL A   1      -2.252  -0.995   1.429  0.00  0.00    +0.050 A 
ATOM     25  C   UNL A   1       0.133  -2.898  -0.723  0.00  0.00    -0.025 C 
ATOM     26  C   UNL A   1       1.548  -2.342  -0.961  0.00  0.00    -0.049 C 
ATOM     27  C   UNL A   1       1.520  -0.855  -1.353  0.00  0.00    -0.047 C 
ATOM     28  C   UNL A   1       0.886   0.024  -0.261  0.00  0.00    -0.012 C 
ENDBRANCH  15  16
ENDBRANCH   4  15
TORSDOF 4
