MODEL 1
REMARK VINA RESULT:    -8.174      0.000      0.000
REMARK INTER + INTRA:         -10.880
REMARK INTER:                 -10.085
REMARK INTRA:                  -0.794
REMARK UNBOUND:                -0.794
REMARK  Name = cpd350.pdb
REMARK  5 active torsions:
REMARK  status: ('A' for Active; 'I' for Inactive)
REMARK    1  A    between atoms: C_1  and  C_2
REMARK    2  A    between atoms: C_5  and  C_6
REMARK    3  A    between atoms: C_6  and  N_7
REMARK    4  A    between atoms: C_10  and  C_11
REMARK    5  A    between atoms: C_11  and  N_12
REMARK                            x       y       z     vdW  Elec       q    Type
REMARK                         _______ _______ _______ _____ _____    ______ ____
ROOT
ATOM      1  N   UNL A   1      33.077 -32.114 -30.690  0.00  0.00    -0.349 N 
ATOM      2  C   UNL A   1      32.497 -32.954 -31.577  0.00  0.00    +0.005 A 
ATOM      3  C   UNL A   1      33.157 -34.102 -32.006  0.00  0.00    -0.041 A 
ATOM      4  C   UNL A   1      34.437 -34.395 -31.527  0.00  0.00    -0.025 A 
ATOM      5  C   UNL A   1      34.995 -33.524 -30.585  0.00  0.00    -0.041 A 
ATOM      6  C   UNL A   1      34.305 -32.382 -30.193  0.00  0.00    +0.005 A 
ENDROOT
BRANCH   1   7
ATOM      7  C   UNL A   1      32.365 -30.885 -30.257  0.00  0.00    +0.048 C 
BRANCH   7  12
ATOM      8  C   UNL A   1      26.909 -32.163 -28.662  0.00  0.00    -0.040 C 
ATOM      9  C   UNL A   1      28.315 -31.855 -29.088  0.00  0.00    -0.050 A 
ATOM     10  C   UNL A   1      29.399 -32.303 -28.326  0.00  0.00    -0.059 A 
ATOM     11  C   UNL A   1      30.707 -31.987 -28.698  0.00  0.00    -0.057 A 
ATOM     12  C   UNL A   1      30.955 -31.207 -29.837  0.00  0.00    -0.028 A 
ATOM     13  C   UNL A   1      29.865 -30.742 -30.588  0.00  0.00    -0.057 A 
ATOM     14  C   UNL A   1      28.559 -31.059 -30.211  0.00  0.00    -0.059 A 
ENDBRANCH   7  12
ENDBRANCH   1   7
BRANCH   4  15
ATOM     15  C   UNL A   1      35.144 -35.651 -32.005  0.00  0.00    +0.049 C 
BRANCH  15  16
ATOM     16  N   UNL A   1      36.166 -36.122 -31.075  0.00  0.00    -0.339 N 
ATOM     17  C   UNL A   1      35.934 -36.628 -29.820  0.00  0.00    +0.023 A 
ATOM     18  C   UNL A   1      37.153 -36.954 -29.257  0.00  0.00    -0.019 A 
ATOM     19  C   UNL A   1      38.166 -36.622 -30.196  0.00  0.00    +0.003 A 
ATOM     20  C   UNL A   1      39.573 -36.714 -30.186  0.00  0.00    -0.052 A 
ATOM     21  C   UNL A   1      40.301 -36.303 -31.306  0.00  0.00    -0.061 A 
ATOM     22  C   UNL A   1      39.648 -35.808 -32.430  0.00  0.00    -0.060 A 
ATOM     23  C   UNL A   1      38.253 -35.706 -32.466  0.00  0.00    -0.038 A 
ATOM     24  C   UNL A   1      37.528 -36.116 -31.333  0.00  0.00    +0.050 A 
ATOM     25  C   UNL A   1      37.283 -37.540 -27.890  0.00  0.00    -0.025 C 
ATOM     26  C   UNL A   1      35.938 -38.101 -27.396  0.00  0.00    -0.049 C 
ATOM     27  C   UNL A   1      34.777 -37.132 -27.674  0.00  0.00    -0.047 C 
ATOM     28  C   UNL A   1      34.603 -36.846 -29.176  0.00  0.00    -0.012 C 
ENDBRANCH  15  16
ENDBRANCH   4  15
TORSDOF 4
ENDMDL
MODEL 2
REMARK VINA RESULT:    -8.078      2.872      8.391
REMARK INTER + INTRA:         -10.761
REMARK INTER:                  -9.891
REMARK INTRA:                  -0.870
REMARK UNBOUND:                -0.794
REMARK  Name = cpd350.pdb
REMARK  5 active torsions:
REMARK  status: ('A' for Active; 'I' for Inactive)
REMARK    1  A    between atoms: C_1  and  C_2
REMARK    2  A    between atoms: C_5  and  C_6
REMARK    3  A    between atoms: C_6  and  N_7
REMARK    4  A    between atoms: C_10  and  C_11
REMARK    5  A    between atoms: C_11  and  N_12
REMARK                            x       y       z     vdW  Elec       q    Type
REMARK                         _______ _______ _______ _____ _____    ______ ____
ROOT
ATOM      1  N   UNL A   1      36.838 -38.288 -28.547  0.00  0.00    -0.349 N 
ATOM      2  C   UNL A   1      36.455 -37.378 -27.624  0.00  0.00    +0.005 A 
ATOM      3  C   UNL A   1      35.172 -36.841 -27.645  0.00  0.00    -0.041 A 
ATOM      4  C   UNL A   1      34.262 -37.234 -28.630  0.00  0.00    -0.025 A 
ATOM      5  C   UNL A   1      34.679 -38.203 -29.550  0.00  0.00    -0.041 A 
ATOM      6  C   UNL A   1      35.974 -38.705 -29.500  0.00  0.00    +0.005 A 
ENDROOT
BRANCH   1   7
ATOM      7  C   UNL A   1      38.218 -38.837 -28.520  0.00  0.00    +0.048 C 
BRANCH   7  12
ATOM      8  C   UNL A   1      41.793 -35.524 -31.712  0.00  0.00    -0.040 C 
ATOM      9  C   UNL A   1      40.870 -36.360 -30.872  0.00  0.00    -0.050 A 
ATOM     10  C   UNL A   1      41.387 -37.268 -29.944  0.00  0.00    -0.059 A 
ATOM     11  C   UNL A   1      40.534 -38.073 -29.187  0.00  0.00    -0.057 A 
ATOM     12  C   UNL A   1      39.144 -37.990 -29.352  0.00  0.00    -0.028 A 
ATOM     13  C   UNL A   1      38.628 -37.091 -30.298  0.00  0.00    -0.057 A 
ATOM     14  C   UNL A   1      39.486 -36.289 -31.053  0.00  0.00    -0.059 A 
ENDBRANCH   7  12
ENDBRANCH   1   7
BRANCH   4  15
ATOM     15  C   UNL A   1      32.865 -36.639 -28.640  0.00  0.00    +0.049 C 
BRANCH  15  16
ATOM     16  N   UNL A   1      32.589 -35.844 -29.832  0.00  0.00    -0.339 N 
ATOM     17  C   UNL A   1      31.761 -36.208 -30.864  0.00  0.00    +0.023 A 
ATOM     18  C   UNL A   1      31.771 -35.193 -31.801  0.00  0.00    -0.019 A 
ATOM     19  C   UNL A   1      32.649 -34.179 -31.333  0.00  0.00    +0.003 A 
ATOM     20  C   UNL A   1      33.066 -32.936 -31.849  0.00  0.00    -0.052 A 
ATOM     21  C   UNL A   1      33.956 -32.146 -31.115  0.00  0.00    -0.061 A 
ATOM     22  C   UNL A   1      34.430 -32.577 -29.880  0.00  0.00    -0.060 A 
ATOM     23  C   UNL A   1      34.032 -33.807 -29.345  0.00  0.00    -0.038 A 
ATOM     24  C   UNL A   1      33.141 -34.598 -30.093  0.00  0.00    +0.050 A 
ATOM     25  C   UNL A   1      30.973 -35.247 -33.062  0.00  0.00    -0.025 C 
ATOM     26  C   UNL A   1      29.871 -36.317 -32.976  0.00  0.00    -0.049 C 
ATOM     27  C   UNL A   1      30.397 -37.634 -32.382  0.00  0.00    -0.047 C 
ATOM     28  C   UNL A   1      30.939 -37.454 -30.953  0.00  0.00    -0.012 C 
ENDBRANCH  15  16
ENDBRANCH   4  15
TORSDOF 4
ENDMDL
MODEL 3
REMARK VINA RESULT:    -7.845     17.285     19.467
REMARK INTER + INTRA:         -10.474
REMARK INTER:                  -9.366
REMARK INTRA:                  -1.108
REMARK UNBOUND:                -0.794
REMARK  Name = cpd350.pdb
REMARK  5 active torsions:
REMARK  status: ('A' for Active; 'I' for Inactive)
REMARK    1  A    between atoms: C_1  and  C_2
REMARK    2  A    between atoms: C_5  and  C_6
REMARK    3  A    between atoms: C_6  and  N_7
REMARK    4  A    between atoms: C_10  and  C_11
REMARK    5  A    between atoms: C_11  and  N_12
REMARK                            x       y       z     vdW  Elec       q    Type
REMARK                         _______ _______ _______ _____ _____    ______ ____
ROOT
ATOM      1  N   UNL A   1      42.939 -19.679 -34.293  0.00  0.00    -0.349 N 
ATOM      2  C   UNL A   1      44.119 -19.634 -33.634  0.00  0.00    +0.005 A 
ATOM      3  C   UNL A   1      45.318 -19.851 -34.306  0.00  0.00    -0.041 A 
ATOM      4  C   UNL A   1      45.314 -20.126 -35.676  0.00  0.00    -0.025 A 
ATOM      5  C   UNL A   1      44.079 -20.132 -36.335  0.00  0.00    -0.041 A 
ATOM      6  C   UNL A   1      42.904 -19.921 -35.622  0.00  0.00    +0.005 A 
ENDROOT
BRANCH   1   7
ATOM      7  C   UNL A   1      41.669 -19.462 -33.555  0.00  0.00    +0.048 C 
BRANCH   7  12
ATOM      8  C   UNL A   1      38.284 -24.199 -33.782  0.00  0.00    -0.040 C 
ATOM      9  C   UNL A   1      39.144 -22.971 -33.703  0.00  0.00    -0.050 A 
ATOM     10  C   UNL A   1      38.784 -21.810 -34.393  0.00  0.00    -0.059 A 
ATOM     11  C   UNL A   1      39.599 -20.677 -34.352  0.00  0.00    -0.057 A 
ATOM     12  C   UNL A   1      40.798 -20.689 -33.624  0.00  0.00    -0.028 A 
ATOM     13  C   UNL A   1      41.167 -21.861 -32.948  0.00  0.00    -0.057 A 
ATOM     14  C   UNL A   1      40.349 -22.992 -32.994  0.00  0.00    -0.059 A 
ENDBRANCH   7  12
ENDBRANCH   1   7
BRANCH   4  15
ATOM     15  C   UNL A   1      46.630 -20.361 -36.396  0.00  0.00    +0.049 C 
BRANCH  15  16
ATOM     16  N   UNL A   1      46.747 -19.604 -37.638  0.00  0.00    -0.339 N 
ATOM     17  C   UNL A   1      46.672 -20.127 -38.906  0.00  0.00    +0.023 A 
ATOM     18  C   UNL A   1      46.835 -19.093 -39.806  0.00  0.00    -0.019 A 
ATOM     19  C   UNL A   1      47.034 -17.898 -39.064  0.00  0.00    +0.003 A 
ATOM     20  C   UNL A   1      47.261 -16.553 -39.422  0.00  0.00    -0.052 A 
ATOM     21  C   UNL A   1      47.406 -15.587 -38.422  0.00  0.00    -0.061 A 
ATOM     22  C   UNL A   1      47.325 -15.942 -37.080  0.00  0.00    -0.060 A 
ATOM     23  C   UNL A   1      47.100 -17.268 -36.698  0.00  0.00    -0.038 A 
ATOM     24  C   UNL A   1      46.961 -18.235 -37.709  0.00  0.00    +0.050 A 
ATOM     25  C   UNL A   1      46.804 -19.295 -41.286  0.00  0.00    -0.025 C 
ATOM     26  C   UNL A   1      46.170 -20.649 -41.648  0.00  0.00    -0.049 C 
ATOM     27  C   UNL A   1      46.703 -21.786 -40.761  0.00  0.00    -0.047 C 
ATOM     28  C   UNL A   1      46.404 -21.551 -39.270  0.00  0.00    -0.012 C 
ENDBRANCH  15  16
ENDBRANCH   4  15
TORSDOF 4
ENDMDL
MODEL 4
REMARK VINA RESULT:    -7.743     26.311     29.046
REMARK INTER + INTRA:         -10.347
REMARK INTER:                  -9.149
REMARK INTRA:                  -1.198
REMARK UNBOUND:                -0.794
REMARK  Name = cpd350.pdb
REMARK  5 active torsions:
REMARK  status: ('A' for Active; 'I' for Inactive)
REMARK    1  A    between atoms: C_1  and  C_2
REMARK    2  A    between atoms: C_5  and  C_6
REMARK    3  A    between atoms: C_6  and  N_7
REMARK    4  A    between atoms: C_10  and  C_11
REMARK    5  A    between atoms: C_11  and  N_12
REMARK                            x       y       z     vdW  Elec       q    Type
REMARK                         _______ _______ _______ _____ _____    ______ ____
ROOT
ATOM      1  N   UNL A   1      55.197 -32.923 -53.484  0.00  0.00    -0.349 N 
ATOM      2  C   UNL A   1      56.072 -32.537 -52.529  0.00  0.00    +0.005 A 
ATOM      3  C   UNL A   1      56.537 -33.444 -51.581  0.00  0.00    -0.041 A 
ATOM      4  C   UNL A   1      56.094 -34.770 -51.603  0.00  0.00    -0.025 A 
ATOM      5  C   UNL A   1      55.215 -35.145 -52.624  0.00  0.00    -0.041 A 
ATOM      6  C   UNL A   1      54.768 -34.204 -53.544  0.00  0.00    +0.005 A 
ENDROOT
BRANCH   1   7
ATOM      7  C   UNL A   1      54.699 -31.937 -54.477  0.00  0.00    +0.048 C 
BRANCH   7  12
ATOM      8  C   UNL A   1      49.057 -30.774 -53.611  0.00  0.00    -0.040 C 
ATOM      9  C   UNL A   1      50.515 -31.050 -53.841  0.00  0.00    -0.050 A 
ATOM     10  C   UNL A   1      50.957 -31.528 -55.078  0.00  0.00    -0.059 A 
ATOM     11  C   UNL A   1      52.307 -31.820 -55.285  0.00  0.00    -0.057 A 
ATOM     12  C   UNL A   1      53.239 -31.648 -54.252  0.00  0.00    -0.028 A 
ATOM     13  C   UNL A   1      52.789 -31.187 -53.006  0.00  0.00    -0.057 A 
ATOM     14  C   UNL A   1      51.438 -30.897 -52.803  0.00  0.00    -0.059 A 
ENDBRANCH   7  12
ENDBRANCH   1   7
BRANCH   4  15
ATOM     15  C   UNL A   1      56.610 -35.748 -50.561  0.00  0.00    +0.049 C 
BRANCH  15  16
ATOM     16  N   UNL A   1      55.658 -35.988 -49.481  0.00  0.00    -0.339 N 
ATOM     17  C   UNL A   1      54.685 -36.956 -49.471  0.00  0.00    +0.023 A 
ATOM     18  C   UNL A   1      53.992 -36.855 -48.281  0.00  0.00    -0.019 A 
ATOM     19  C   UNL A   1      54.551 -35.777 -47.543  0.00  0.00    +0.003 A 
ATOM     20  C   UNL A   1      54.263 -35.200 -46.289  0.00  0.00    -0.052 A 
ATOM     21  C   UNL A   1      55.030 -34.126 -45.830  0.00  0.00    -0.061 A 
ATOM     22  C   UNL A   1      56.075 -33.625 -46.599  0.00  0.00    -0.060 A 
ATOM     23  C   UNL A   1      56.382 -34.179 -47.846  0.00  0.00    -0.038 A 
ATOM     24  C   UNL A   1      55.601 -35.256 -48.304  0.00  0.00    +0.050 A 
ATOM     25  C   UNL A   1      52.859 -37.760 -47.924  0.00  0.00    -0.025 C 
ATOM     26  C   UNL A   1      52.853 -39.018 -48.810  0.00  0.00    -0.049 C 
ATOM     27  C   UNL A   1      53.082 -38.675 -50.292  0.00  0.00    -0.047 C 
ATOM     28  C   UNL A   1      54.437 -37.984 -50.527  0.00  0.00    -0.012 C 
ENDBRANCH  15  16
ENDBRANCH   4  15
TORSDOF 4
ENDMDL
MODEL 5
REMARK VINA RESULT:    -7.703     17.368     19.537
REMARK INTER + INTRA:         -10.299
REMARK INTER:                  -9.224
REMARK INTRA:                  -1.075
REMARK UNBOUND:                -0.794
REMARK  Name = cpd350.pdb
REMARK  5 active torsions:
REMARK  status: ('A' for Active; 'I' for Inactive)
REMARK    1  A    between atoms: C_1  and  C_2
REMARK    2  A    between atoms: C_5  and  C_6
REMARK    3  A    between atoms: C_6  and  N_7
REMARK    4  A    between atoms: C_10  and  C_11
REMARK    5  A    between atoms: C_11  and  N_12
REMARK                            x       y       z     vdW  Elec       q    Type
REMARK                         _______ _______ _______ _____ _____    ______ ____
ROOT
ATOM      1  N   UNL A   1      42.933 -19.590 -34.577  0.00  0.00    -0.349 N 
ATOM      2  C   UNL A   1      42.932 -19.841 -35.906  0.00  0.00    +0.005 A 
ATOM      3  C   UNL A   1      44.126 -20.045 -36.592  0.00  0.00    -0.041 A 
ATOM      4  C   UNL A   1      45.345 -19.985 -35.912  0.00  0.00    -0.025 A 
ATOM      5  C   UNL A   1      45.310 -19.758 -34.531  0.00  0.00    -0.041 A 
ATOM      6  C   UNL A   1      44.095 -19.547 -33.888  0.00  0.00    +0.005 A 
ENDROOT
BRANCH   1   7
ATOM      7  C   UNL A   1      41.651 -19.357 -33.865  0.00  0.00    +0.048 C 
BRANCH   7  12
ATOM      8  C   UNL A   1      38.430 -24.210 -33.715  0.00  0.00    -0.040 C 
ATOM      9  C   UNL A   1      39.247 -22.950 -33.734  0.00  0.00    -0.050 A 
ATOM     10  C   UNL A   1      38.869 -21.874 -34.543  0.00  0.00    -0.059 A 
ATOM     11  C   UNL A   1      39.646 -20.715 -34.591  0.00  0.00    -0.057 A 
ATOM     12  C   UNL A   1      40.823 -20.614 -33.836  0.00  0.00    -0.028 A 
ATOM     13  C   UNL A   1      41.211 -21.703 -33.041  0.00  0.00    -0.057 A 
ATOM     14  C   UNL A   1      40.432 -22.861 -32.997  0.00  0.00    -0.059 A 
ENDBRANCH   7  12
ENDBRANCH   1   7
BRANCH   4  15
ATOM     15  C   UNL A   1      46.639 -20.210 -36.674  0.00  0.00    +0.049 C 
BRANCH  15  16
ATOM     16  N   UNL A   1      46.667 -19.534 -37.968  0.00  0.00    -0.339 N 
ATOM     17  C   UNL A   1      46.872 -18.191 -38.166  0.00  0.00    +0.023 A 
ATOM     18  C   UNL A   1      46.819 -17.945 -39.524  0.00  0.00    -0.019 A 
ATOM     19  C   UNL A   1      46.557 -19.179 -40.178  0.00  0.00    +0.003 A 
ATOM     20  C   UNL A   1      46.386 -19.550 -41.527  0.00  0.00    -0.052 A 
ATOM     21  C   UNL A   1      46.146 -20.889 -41.851  0.00  0.00    -0.061 A 
ATOM     22  C   UNL A   1      46.078 -21.855 -40.853  0.00  0.00    -0.060 A 
ATOM     23  C   UNL A   1      46.244 -21.514 -39.507  0.00  0.00    -0.038 A 
ATOM     24  C   UNL A   1      46.479 -20.164 -39.189  0.00  0.00    +0.050 A 
ATOM     25  C   UNL A   1      47.007 -16.584 -40.108  0.00  0.00    -0.025 C 
ATOM     26  C   UNL A   1      47.660 -15.629 -39.093  0.00  0.00    -0.049 C 
ATOM     27  C   UNL A   1      47.020 -15.751 -37.700  0.00  0.00    -0.047 C 
ATOM     28  C   UNL A   1      47.159 -17.167 -37.116  0.00  0.00    -0.012 C 
ENDBRANCH  15  16
ENDBRANCH   4  15
TORSDOF 4
ENDMDL
MODEL 6
REMARK VINA RESULT:    -7.687     15.473     18.907
REMARK INTER + INTRA:         -10.279
REMARK INTER:                  -9.295
REMARK INTRA:                  -0.983
REMARK UNBOUND:                -0.794
REMARK  Name = cpd350.pdb
REMARK  5 active torsions:
REMARK  status: ('A' for Active; 'I' for Inactive)
REMARK    1  A    between atoms: C_1  and  C_2
REMARK    2  A    between atoms: C_5  and  C_6
REMARK    3  A    between atoms: C_6  and  N_7
REMARK    4  A    between atoms: C_10  and  C_11
REMARK    5  A    between atoms: C_11  and  N_12
REMARK                            x       y       z     vdW  Elec       q    Type
REMARK                         _______ _______ _______ _____ _____    ______ ____
ROOT
ATOM      1  N   UNL A   1      43.495 -20.570 -39.453  0.00  0.00    -0.349 N 
ATOM      2  C   UNL A   1      43.456 -20.808 -38.123  0.00  0.00    +0.005 A 
ATOM      3  C   UNL A   1      42.304 -21.309 -37.524  0.00  0.00    -0.041 A 
ATOM      4  C   UNL A   1      41.167 -21.564 -38.294  0.00  0.00    -0.025 A 
ATOM      5  C   UNL A   1      41.251 -21.338 -39.673  0.00  0.00    -0.041 A 
ATOM      6  C   UNL A   1      42.418 -20.827 -40.229  0.00  0.00    +0.005 A 
ENDROOT
BRANCH   1   7
ATOM      7  C   UNL A   1      44.727 -20.019 -40.072  0.00  0.00    +0.048 C 
BRANCH   7  12
ATOM      8  C   UNL A   1      47.934 -24.247 -42.476  0.00  0.00    -0.040 C 
ATOM      9  C   UNL A   1      47.124 -23.140 -41.867  0.00  0.00    -0.050 A 
ATOM     10  C   UNL A   1      47.384 -22.709 -40.563  0.00  0.00    -0.059 A 
ATOM     11  C   UNL A   1      46.609 -21.705 -39.979  0.00  0.00    -0.057 A 
ATOM     12  C   UNL A   1      45.550 -21.119 -40.688  0.00  0.00    -0.028 A 
ATOM     13  C   UNL A   1      45.278 -21.568 -41.989  0.00  0.00    -0.057 A 
ATOM     14  C   UNL A   1      46.056 -22.574 -42.568  0.00  0.00    -0.059 A 
ENDBRANCH   7  12
ENDBRANCH   1   7
BRANCH   4  15
ATOM     15  C   UNL A   1      39.917 -22.110 -37.626  0.00  0.00    +0.049 C 
BRANCH  15  16
ATOM     16  N   UNL A   1      39.501 -21.330 -36.464  0.00  0.00    -0.339 N 
ATOM     17  C   UNL A   1      39.657 -21.701 -35.152  0.00  0.00    +0.023 A 
ATOM     18  C   UNL A   1      39.133 -20.700 -34.358  0.00  0.00    -0.019 A 
ATOM     19  C   UNL A   1      38.625 -19.687 -35.215  0.00  0.00    +0.003 A 
ATOM     20  C   UNL A   1      37.979 -18.455 -34.992  0.00  0.00    -0.052 A 
ATOM     21  C   UNL A   1      37.606 -17.662 -36.082  0.00  0.00    -0.061 A 
ATOM     22  C   UNL A   1      37.871 -18.080 -37.381  0.00  0.00    -0.060 A 
ATOM     23  C   UNL A   1      38.511 -19.298 -37.631  0.00  0.00    -0.038 A 
ATOM     24  C   UNL A   1      38.878 -20.092 -36.529  0.00  0.00    +0.050 A 
ATOM     25  C   UNL A   1      39.136 -20.765 -32.866  0.00  0.00    -0.025 C 
ATOM     26  C   UNL A   1      40.129 -21.824 -32.358  0.00  0.00    -0.049 C 
ATOM     27  C   UNL A   1      40.021 -23.137 -33.152  0.00  0.00    -0.047 C 
ATOM     28  C   UNL A   1      40.322 -22.941 -34.648  0.00  0.00    -0.012 C 
ENDBRANCH  15  16
ENDBRANCH   4  15
TORSDOF 4
ENDMDL
MODEL 7
REMARK VINA RESULT:    -7.681     15.212     18.522
REMARK INTER + INTRA:         -10.271
REMARK INTER:                  -9.323
REMARK INTRA:                  -0.948
REMARK UNBOUND:                -0.794
REMARK  Name = cpd350.pdb
REMARK  5 active torsions:
REMARK  status: ('A' for Active; 'I' for Inactive)
REMARK    1  A    between atoms: C_1  and  C_2
REMARK    2  A    between atoms: C_5  and  C_6
REMARK    3  A    between atoms: C_6  and  N_7
REMARK    4  A    between atoms: C_10  and  C_11
REMARK    5  A    between atoms: C_11  and  N_12
REMARK                            x       y       z     vdW  Elec       q    Type
REMARK                         _______ _______ _______ _____ _____    ______ ____
ROOT
ATOM      1  N   UNL A   1      42.991 -19.965 -38.191  0.00  0.00    -0.349 N 
ATOM      2  C   UNL A   1      43.612 -19.346 -37.162  0.00  0.00    +0.005 A 
ATOM      3  C   UNL A   1      43.334 -19.704 -35.846  0.00  0.00    -0.041 A 
ATOM      4  C   UNL A   1      42.400 -20.708 -35.573  0.00  0.00    -0.025 A 
ATOM      5  C   UNL A   1      41.801 -21.351 -36.662  0.00  0.00    -0.041 A 
ATOM      6  C   UNL A   1      42.098 -20.953 -37.961  0.00  0.00    +0.005 A 
ENDROOT
BRANCH   1   7
ATOM      7  C   UNL A   1      43.286 -19.557 -39.588  0.00  0.00    +0.048 C 
BRANCH   7  12
ATOM      8  C   UNL A   1      46.937 -23.318 -42.132  0.00  0.00    -0.040 C 
ATOM      9  C   UNL A   1      46.011 -22.330 -41.484  0.00  0.00    -0.050 A 
ATOM     10  C   UNL A   1      46.176 -21.982 -40.141  0.00  0.00    -0.059 A 
ATOM     11  C   UNL A   1      45.296 -21.091 -39.524  0.00  0.00    -0.057 A 
ATOM     12  C   UNL A   1      44.225 -20.538 -40.241  0.00  0.00    -0.028 A 
ATOM     13  C   UNL A   1      44.049 -20.904 -41.584  0.00  0.00    -0.057 A 
ATOM     14  C   UNL A   1      44.932 -21.796 -42.195  0.00  0.00    -0.059 A 
ENDBRANCH   7  12
ENDBRANCH   1   7
BRANCH   4  15
ATOM     15  C   UNL A   1      42.108 -21.087 -34.132  0.00  0.00    +0.049 C 
BRANCH  15  16
ATOM     16  N   UNL A   1      40.726 -20.827 -33.740  0.00  0.00    -0.339 N 
ATOM     17  C   UNL A   1      40.220 -19.613 -33.347  0.00  0.00    +0.023 A 
ATOM     18  C   UNL A   1      38.881 -19.782 -33.055  0.00  0.00    -0.019 A 
ATOM     19  C   UNL A   1      38.560 -21.150 -33.262  0.00  0.00    +0.003 A 
ATOM     20  C   UNL A   1      37.380 -21.907 -33.121  0.00  0.00    -0.052 A 
ATOM     21  C   UNL A   1      37.392 -23.272 -33.427  0.00  0.00    -0.061 A 
ATOM     22  C   UNL A   1      38.559 -23.884 -33.871  0.00  0.00    -0.060 A 
ATOM     23  C   UNL A   1      39.744 -23.156 -34.020  0.00  0.00    -0.038 A 
ATOM     24  C   UNL A   1      39.724 -21.785 -33.705  0.00  0.00    +0.050 A 
ATOM     25  C   UNL A   1      38.004 -18.662 -32.597  0.00  0.00    -0.025 C 
ATOM     26  C   UNL A   1      38.647 -17.296 -32.896  0.00  0.00    -0.049 C 
ATOM     27  C   UNL A   1      40.136 -17.269 -32.514  0.00  0.00    -0.047 C 
ATOM     28  C   UNL A   1      40.957 -18.314 -33.290  0.00  0.00    -0.012 C 
ENDBRANCH  15  16
ENDBRANCH   4  15
TORSDOF 4
ENDMDL
MODEL 8
REMARK VINA RESULT:    -7.481      4.034      7.469
REMARK INTER + INTRA:         -10.025
REMARK INTER:                  -9.096
REMARK INTRA:                  -0.929
REMARK UNBOUND:                -0.794
REMARK  Name = cpd350.pdb
REMARK  5 active torsions:
REMARK  status: ('A' for Active; 'I' for Inactive)
REMARK    1  A    between atoms: C_1  and  C_2
REMARK    2  A    between atoms: C_5  and  C_6
REMARK    3  A    between atoms: C_6  and  N_7
REMARK    4  A    between atoms: C_10  and  C_11
REMARK    5  A    between atoms: C_11  and  N_12
REMARK                            x       y       z     vdW  Elec       q    Type
REMARK                         _______ _______ _______ _____ _____    ______ ____
ROOT
ATOM      1  N   UNL A   1      32.543 -37.423 -24.833  0.00  0.00    -0.349 N 
ATOM      2  C   UNL A   1      31.673 -37.929 -25.736  0.00  0.00    +0.005 A 
ATOM      3  C   UNL A   1      32.077 -38.195 -27.041  0.00  0.00    -0.041 A 
ATOM      4  C   UNL A   1      33.392 -37.932 -27.436  0.00  0.00    -0.025 A 
ATOM      5  C   UNL A   1      34.275 -37.440 -26.468  0.00  0.00    -0.041 A 
ATOM      6  C   UNL A   1      33.826 -37.179 -25.179  0.00  0.00    +0.005 A 
ENDROOT
BRANCH   1   7
ATOM      7  C   UNL A   1      32.089 -37.130 -23.450  0.00  0.00    +0.048 C 
BRANCH   7  12
ATOM      8  C   UNL A   1      35.373 -39.922 -19.530  0.00  0.00    -0.040 C 
ATOM      9  C   UNL A   1      34.509 -39.197 -20.522  0.00  0.00    -0.050 A 
ATOM     10  C   UNL A   1      33.560 -39.894 -21.275  0.00  0.00    -0.059 A 
ATOM     11  C   UNL A   1      32.781 -39.231 -22.225  0.00  0.00    -0.057 A 
ATOM     12  C   UNL A   1      32.944 -37.856 -22.445  0.00  0.00    -0.028 A 
ATOM     13  C   UNL A   1      33.911 -37.162 -21.702  0.00  0.00    -0.057 A 
ATOM     14  C   UNL A   1      34.689 -37.831 -20.754  0.00  0.00    -0.059 A 
ENDBRANCH   7  12
ENDBRANCH   1   7
BRANCH   4  15
ATOM     15  C   UNL A   1      33.817 -38.226 -28.864  0.00  0.00    +0.049 C 
BRANCH  15  16
ATOM     16  N   UNL A   1      34.946 -37.413 -29.304  0.00  0.00    -0.339 N 
ATOM     17  C   UNL A   1      34.859 -36.207 -29.955  0.00  0.00    +0.023 A 
ATOM     18  C   UNL A   1      36.142 -35.761 -30.204  0.00  0.00    -0.019 A 
ATOM     19  C   UNL A   1      37.046 -36.735 -29.702  0.00  0.00    +0.003 A 
ATOM     20  C   UNL A   1      38.451 -36.839 -29.674  0.00  0.00    -0.052 A 
ATOM     21  C   UNL A   1      39.050 -37.952 -29.076  0.00  0.00    -0.061 A 
ATOM     22  C   UNL A   1      38.270 -38.953 -28.507  0.00  0.00    -0.060 A 
ATOM     23  C   UNL A   1      36.874 -38.874 -28.520  0.00  0.00    -0.038 A 
ATOM     24  C   UNL A   1      36.279 -37.755 -29.129  0.00  0.00    +0.050 A 
ATOM     25  C   UNL A   1      36.430 -34.470 -30.898  0.00  0.00    -0.025 C 
ATOM     26  C   UNL A   1      35.193 -33.556 -30.905  0.00  0.00    -0.049 C 
ATOM     27  C   UNL A   1      33.915 -34.325 -31.283  0.00  0.00    -0.047 C 
ATOM     28  C   UNL A   1      33.608 -35.464 -30.295  0.00  0.00    -0.012 C 
ENDBRANCH  15  16
ENDBRANCH   4  15
TORSDOF 4
ENDMDL
MODEL 9
REMARK VINA RESULT:    -7.459     19.423     21.689
REMARK INTER + INTRA:          -9.998
REMARK INTER:                  -8.925
REMARK INTRA:                  -1.073
REMARK UNBOUND:                -0.794
REMARK  Name = cpd350.pdb
REMARK  5 active torsions:
REMARK  status: ('A' for Active; 'I' for Inactive)
REMARK    1  A    between atoms: C_1  and  C_2
REMARK    2  A    between atoms: C_5  and  C_6
REMARK    3  A    between atoms: C_6  and  N_7
REMARK    4  A    between atoms: C_10  and  C_11
REMARK    5  A    between atoms: C_11  and  N_12
REMARK                            x       y       z     vdW  Elec       q    Type
REMARK                         _______ _______ _______ _____ _____    ______ ____
ROOT
ATOM      1  N   UNL A   1      45.228 -18.836 -34.487  0.00  0.00    -0.349 N 
ATOM      2  C   UNL A   1      46.408 -18.209 -34.695  0.00  0.00    +0.005 A 
ATOM      3  C   UNL A   1      47.065 -18.317 -35.917  0.00  0.00    -0.041 A 
ATOM      4  C   UNL A   1      46.512 -19.085 -36.946  0.00  0.00    -0.025 A 
ATOM      5  C   UNL A   1      45.274 -19.693 -36.710  0.00  0.00    -0.041 A 
ATOM      6  C   UNL A   1      44.658 -19.569 -35.470  0.00  0.00    +0.005 A 
ENDROOT
BRANCH   1   7
ATOM      7  C   UNL A   1      44.550 -18.724 -33.171  0.00  0.00    +0.048 C 
BRANCH   7  12
ATOM      8  C   UNL A   1      44.040 -13.131 -31.623  0.00  0.00    -0.040 C 
ATOM      9  C   UNL A   1      44.193 -14.567 -32.035  0.00  0.00    -0.050 A 
ATOM     10  C   UNL A   1      43.564 -15.041 -33.189  0.00  0.00    -0.059 A 
ATOM     11  C   UNL A   1      43.673 -16.384 -33.557  0.00  0.00    -0.057 A 
ATOM     12  C   UNL A   1      44.408 -17.281 -32.767  0.00  0.00    -0.028 A 
ATOM     13  C   UNL A   1      45.021 -16.806 -31.598  0.00  0.00    -0.057 A 
ATOM     14  C   UNL A   1      44.908 -15.462 -31.235  0.00  0.00    -0.059 A 
ENDBRANCH   7  12
ENDBRANCH   1   7
BRANCH   4  15
ATOM     15  C   UNL A   1      47.242 -19.193 -38.273  0.00  0.00    +0.049 C 
BRANCH  15  16
ATOM     16  N   UNL A   1      46.361 -19.029 -39.426  0.00  0.00    -0.339 N 
ATOM     17  C   UNL A   1      45.996 -20.020 -40.303  0.00  0.00    +0.023 A 
ATOM     18  C   UNL A   1      45.162 -19.465 -41.254  0.00  0.00    -0.019 A 
ATOM     19  C   UNL A   1      45.025 -18.082 -40.957  0.00  0.00    +0.003 A 
ATOM     20  C   UNL A   1      44.325 -17.019 -41.563  0.00  0.00    -0.052 A 
ATOM     21  C   UNL A   1      44.386 -15.741 -41.000  0.00  0.00    -0.061 A 
ATOM     22  C   UNL A   1      45.129 -15.512 -39.847  0.00  0.00    -0.060 A 
ATOM     23  C   UNL A   1      45.832 -16.549 -39.225  0.00  0.00    -0.038 A 
ATOM     24  C   UNL A   1      45.771 -17.831 -39.801  0.00  0.00    +0.050 A 
ATOM     25  C   UNL A   1      44.566 -20.258 -42.370  0.00  0.00    -0.025 C 
ATOM     26  C   UNL A   1      44.647 -21.768 -42.083  0.00  0.00    -0.049 C 
ATOM     27  C   UNL A   1      46.030 -22.175 -41.548  0.00  0.00    -0.047 C 
ATOM     28  C   UNL A   1      46.378 -21.463 -40.229  0.00  0.00    -0.012 C 
ENDBRANCH  15  16
ENDBRANCH   4  15
TORSDOF 4
ENDMDL
MODEL 10
REMARK VINA RESULT:    -7.377     17.190     20.325
REMARK INTER + INTRA:          -9.897
REMARK INTER:                  -8.820
REMARK INTRA:                  -1.077
REMARK UNBOUND:                -0.794
REMARK  Name = cpd350.pdb
REMARK  5 active torsions:
REMARK  status: ('A' for Active; 'I' for Inactive)
REMARK    1  A    between atoms: C_1  and  C_2
REMARK    2  A    between atoms: C_5  and  C_6
REMARK    3  A    between atoms: C_6  and  N_7
REMARK    4  A    between atoms: C_10  and  C_11
REMARK    5  A    between atoms: C_11  and  N_12
REMARK                            x       y       z     vdW  Elec       q    Type
REMARK                         _______ _______ _______ _____ _____    ______ ____
ROOT
ATOM      1  N   UNL A   1      45.151 -19.683 -38.461  0.00  0.00    -0.349 N 
ATOM      2  C   UNL A   1      46.189 -19.680 -37.595  0.00  0.00    +0.005 A 
ATOM      3  C   UNL A   1      45.982 -19.895 -36.236  0.00  0.00    -0.041 A 
ATOM      4  C   UNL A   1      44.690 -20.111 -35.748  0.00  0.00    -0.025 A 
ATOM      5  C   UNL A   1      43.642 -20.141 -36.675  0.00  0.00    -0.041 A 
ATOM      6  C   UNL A   1      43.892 -19.910 -38.023  0.00  0.00    +0.005 A 
ENDROOT
BRANCH   1   7
ATOM      7  C   UNL A   1      45.389 -19.435 -39.905  0.00  0.00    +0.048 C 
BRANCH   7  12
ATOM      8  C   UNL A   1      48.555 -23.746 -42.213  0.00  0.00    -0.040 C 
ATOM      9  C   UNL A   1      47.753 -22.637 -41.597  0.00  0.00    -0.050 A 
ATOM     10  C   UNL A   1      46.562 -22.917 -40.921  0.00  0.00    -0.059 A 
ATOM     11  C   UNL A   1      45.793 -21.885 -40.378  0.00  0.00    -0.057 A 
ATOM     12  C   UNL A   1      46.200 -20.549 -40.510  0.00  0.00    -0.028 A 
ATOM     13  C   UNL A   1      47.385 -20.270 -41.206  0.00  0.00    -0.057 A 
ATOM     14  C   UNL A   1      48.150 -21.305 -41.749  0.00  0.00    -0.059 A 
ENDBRANCH   7  12
ENDBRANCH   1   7
BRANCH   4  15
ATOM     15  C   UNL A   1      44.480 -20.344 -34.262  0.00  0.00    +0.049 C 
BRANCH  15  16
ATOM     16  N   UNL A   1      43.463 -19.472 -33.684  0.00  0.00    -0.339 N 
ATOM     17  C   UNL A   1      42.210 -19.860 -33.280  0.00  0.00    +0.023 A 
ATOM     18  C   UNL A   1      41.550 -18.747 -32.797  0.00  0.00    -0.019 A 
ATOM     19  C   UNL A   1      42.425 -17.635 -32.924  0.00  0.00    +0.003 A 
ATOM     20  C   UNL A   1      42.311 -16.264 -32.618  0.00  0.00    -0.052 A 
ATOM     21  C   UNL A   1      43.391 -15.409 -32.859  0.00  0.00    -0.061 A 
ATOM     22  C   UNL A   1      44.575 -15.902 -33.396  0.00  0.00    -0.060 A 
ATOM     23  C   UNL A   1      44.715 -17.258 -33.708  0.00  0.00    -0.038 A 
ATOM     24  C   UNL A   1      43.622 -18.111 -33.468  0.00  0.00    +0.050 A 
ATOM     25  C   UNL A   1      40.156 -18.799 -32.263  0.00  0.00    -0.025 C 
ATOM     26  C   UNL A   1      39.740 -20.245 -31.939  0.00  0.00    -0.049 C 
ATOM     27  C   UNL A   1      40.136 -21.220 -33.061  0.00  0.00    -0.047 C 
ATOM     28  C   UNL A   1      41.655 -21.248 -33.299  0.00  0.00    -0.012 C 
ENDBRANCH  15  16
ENDBRANCH   4  15
TORSDOF 4
ENDMDL
MODEL 11
REMARK VINA RESULT:    -7.364     15.476     18.988
REMARK INTER + INTRA:          -9.880
REMARK INTER:                  -9.127
REMARK INTRA:                  -0.753
REMARK UNBOUND:                -0.794
REMARK  Name = cpd350.pdb
REMARK  5 active torsions:
REMARK  status: ('A' for Active; 'I' for Inactive)
REMARK    1  A    between atoms: C_1  and  C_2
REMARK    2  A    between atoms: C_5  and  C_6
REMARK    3  A    between atoms: C_6  and  N_7
REMARK    4  A    between atoms: C_10  and  C_11
REMARK    5  A    between atoms: C_11  and  N_12
REMARK                            x       y       z     vdW  Elec       q    Type
REMARK                         _______ _______ _______ _____ _____    ______ ____
ROOT
ATOM      1  N   UNL A   1      43.660 -20.641 -39.374  0.00  0.00    -0.349 N 
ATOM      2  C   UNL A   1      43.383 -20.347 -38.084  0.00  0.00    +0.005 A 
ATOM      3  C   UNL A   1      42.222 -20.820 -37.480  0.00  0.00    -0.041 A 
ATOM      4  C   UNL A   1      41.321 -21.602 -38.208  0.00  0.00    -0.025 A 
ATOM      5  C   UNL A   1      41.653 -21.916 -39.530  0.00  0.00    -0.041 A 
ATOM      6  C   UNL A   1      42.818 -21.413 -40.098  0.00  0.00    +0.005 A 
ENDROOT
BRANCH   1   7
ATOM      7  C   UNL A   1      44.895 -20.114 -40.007  0.00  0.00    +0.048 C 
BRANCH   7  12
ATOM      8  C   UNL A   1      47.985 -24.397 -42.467  0.00  0.00    -0.040 C 
ATOM      9  C   UNL A   1      47.206 -23.276 -41.840  0.00  0.00    -0.050 A 
ATOM     10  C   UNL A   1      47.397 -22.949 -40.495  0.00  0.00    -0.059 A 
ATOM     11  C   UNL A   1      46.649 -21.932 -39.898  0.00  0.00    -0.057 A 
ATOM     12  C   UNL A   1      45.687 -21.228 -40.638  0.00  0.00    -0.028 A 
ATOM     13  C   UNL A   1      45.484 -21.572 -41.983  0.00  0.00    -0.057 A 
ATOM     14  C   UNL A   1      46.234 -22.591 -42.574  0.00  0.00    -0.059 A 
ENDBRANCH   7  12
ENDBRANCH   1   7
BRANCH   4  15
ATOM     15  C   UNL A   1      40.057 -22.110 -37.535  0.00  0.00    +0.049 C 
BRANCH  15  16
ATOM     16  N   UNL A   1      39.667 -21.315 -36.375  0.00  0.00    -0.339 N 
ATOM     17  C   UNL A   1      39.006 -20.112 -36.414  0.00  0.00    +0.023 A 
ATOM     18  C   UNL A   1      38.827 -19.680 -35.114  0.00  0.00    -0.019 A 
ATOM     19  C   UNL A   1      39.413 -20.644 -34.251  0.00  0.00    +0.003 A 
ATOM     20  C   UNL A   1      39.551 -20.745 -32.852  0.00  0.00    -0.052 A 
ATOM     21  C   UNL A   1      40.187 -21.860 -32.298  0.00  0.00    -0.061 A 
ATOM     22  C   UNL A   1      40.680 -22.870 -33.117  0.00  0.00    -0.060 A 
ATOM     23  C   UNL A   1      40.557 -22.795 -34.508  0.00  0.00    -0.038 A 
ATOM     24  C   UNL A   1      39.921 -21.667 -35.058  0.00  0.00    +0.050 A 
ATOM     25  C   UNL A   1      38.134 -18.401 -34.775  0.00  0.00    -0.025 C 
ATOM     26  C   UNL A   1      37.314 -17.880 -35.968  0.00  0.00    -0.049 C 
ATOM     27  C   UNL A   1      38.104 -17.962 -37.285  0.00  0.00    -0.047 C 
ATOM     28  C   UNL A   1      38.509 -19.405 -37.633  0.00  0.00    -0.012 C 
ENDBRANCH  15  16
ENDBRANCH   4  15
TORSDOF 4
ENDMDL
MODEL 12
REMARK VINA RESULT:    -7.363     17.289     20.577
REMARK INTER + INTRA:          -9.879
REMARK INTER:                  -8.891
REMARK INTRA:                  -0.989
REMARK UNBOUND:                -0.794
REMARK  Name = cpd350.pdb
REMARK  5 active torsions:
REMARK  status: ('A' for Active; 'I' for Inactive)
REMARK    1  A    between atoms: C_1  and  C_2
REMARK    2  A    between atoms: C_5  and  C_6
REMARK    3  A    between atoms: C_6  and  N_7
REMARK    4  A    between atoms: C_10  and  C_11
REMARK    5  A    between atoms: C_11  and  N_12
REMARK                            x       y       z     vdW  Elec       q    Type
REMARK                         _______ _______ _______ _____ _____    ______ ____
ROOT
ATOM      1  N   UNL A   1      45.309 -19.483 -38.481  0.00  0.00    -0.349 N 
ATOM      2  C   UNL A   1      46.325 -19.316 -37.605  0.00  0.00    +0.005 A 
ATOM      3  C   UNL A   1      46.122 -19.489 -36.239  0.00  0.00    -0.041 A 
ATOM      4  C   UNL A   1      44.856 -19.831 -35.755  0.00  0.00    -0.025 A 
ATOM      5  C   UNL A   1      43.834 -20.029 -36.691  0.00  0.00    -0.041 A 
ATOM      6  C   UNL A   1      44.079 -19.835 -38.046  0.00  0.00    +0.005 A 
ENDROOT
BRANCH   1   7
ATOM      7  C   UNL A   1      45.540 -19.277 -39.933  0.00  0.00    +0.048 C 
BRANCH   7  12
ATOM      8  C   UNL A   1      48.388 -23.826 -42.202  0.00  0.00    -0.040 C 
ATOM      9  C   UNL A   1      47.669 -22.654 -41.597  0.00  0.00    -0.050 A 
ATOM     10  C   UNL A   1      46.534 -22.853 -40.806  0.00  0.00    -0.059 A 
ATOM     11  C   UNL A   1      45.842 -21.765 -40.271  0.00  0.00    -0.057 A 
ATOM     12  C   UNL A   1      46.269 -20.454 -40.527  0.00  0.00    -0.028 A 
ATOM     13  C   UNL A   1      47.396 -20.256 -41.338  0.00  0.00    -0.057 A 
ATOM     14  C   UNL A   1      48.085 -21.348 -41.871  0.00  0.00    -0.059 A 
ENDBRANCH   7  12
ENDBRANCH   1   7
BRANCH   4  15
ATOM     15  C   UNL A   1      44.650 -20.015 -34.262  0.00  0.00    +0.049 C 
BRANCH  15  16
ATOM     16  N   UNL A   1      43.518 -19.256 -33.742  0.00  0.00    -0.339 N 
ATOM     17  C   UNL A   1      43.489 -17.898 -33.538  0.00  0.00    +0.023 A 
ATOM     18  C   UNL A   1      42.247 -17.566 -33.032  0.00  0.00    -0.019 A 
ATOM     19  C   UNL A   1      41.495 -18.765 -32.909  0.00  0.00    +0.003 A 
ATOM     20  C   UNL A   1      40.194 -19.057 -32.452  0.00  0.00    -0.052 A 
ATOM     21  C   UNL A   1      39.733 -20.377 -32.472  0.00  0.00    -0.061 A 
ATOM     22  C   UNL A   1      40.549 -21.401 -32.941  0.00  0.00    -0.060 A 
ATOM     23  C   UNL A   1      41.844 -21.139 -33.400  0.00  0.00    -0.038 A 
ATOM     24  C   UNL A   1      42.301 -19.810 -33.371  0.00  0.00    +0.050 A 
ATOM     25  C   UNL A   1      41.859 -16.165 -32.695  0.00  0.00    -0.025 C 
ATOM     26  C   UNL A   1      42.810 -15.151 -33.354  0.00  0.00    -0.049 C 
ATOM     27  C   UNL A   1      44.284 -15.564 -33.198  0.00  0.00    -0.047 C 
ATOM     28  C   UNL A   1      44.580 -16.925 -33.851  0.00  0.00    -0.012 C 
ENDBRANCH  15  16
ENDBRANCH   4  15
TORSDOF 4
ENDMDL
MODEL 13
REMARK VINA RESULT:    -7.275     16.763     18.953
REMARK INTER + INTRA:          -9.771
REMARK INTER:                  -8.766
REMARK INTRA:                  -1.005
REMARK UNBOUND:                -0.794
REMARK  Name = cpd350.pdb
REMARK  5 active torsions:
REMARK  status: ('A' for Active; 'I' for Inactive)
REMARK    1  A    between atoms: C_1  and  C_2
REMARK    2  A    between atoms: C_5  and  C_6
REMARK    3  A    between atoms: C_6  and  N_7
REMARK    4  A    between atoms: C_10  and  C_11
REMARK    5  A    between atoms: C_11  and  N_12
REMARK                            x       y       z     vdW  Elec       q    Type
REMARK                         _______ _______ _______ _____ _____    ______ ____
ROOT
ATOM      1  N   UNL A   1      40.965 -21.658 -36.209  0.00  0.00    -0.349 N 
ATOM      2  C   UNL A   1      41.850 -21.048 -35.389  0.00  0.00    +0.005 A 
ATOM      3  C   UNL A   1      43.010 -20.471 -35.898  0.00  0.00    -0.041 A 
ATOM      4  C   UNL A   1      43.276 -20.523 -37.269  0.00  0.00    -0.025 A 
ATOM      5  C   UNL A   1      42.323 -21.131 -38.094  0.00  0.00    -0.041 A 
ATOM      6  C   UNL A   1      41.184 -21.705 -37.542  0.00  0.00    +0.005 A 
ENDROOT
BRANCH   1   7
ATOM      7  C   UNL A   1      39.741 -22.283 -35.646  0.00  0.00    +0.048 C 
BRANCH   7  12
ATOM      8  C   UNL A   1      36.706 -18.382 -32.562  0.00  0.00    -0.040 C 
ATOM      9  C   UNL A   1      37.510 -19.375 -33.351  0.00  0.00    -0.050 A 
ATOM     10  C   UNL A   1      37.705 -19.195 -34.724  0.00  0.00    -0.059 A 
ATOM     11  C   UNL A   1      38.421 -20.134 -35.469  0.00  0.00    -0.057 A 
ATOM     12  C   UNL A   1      38.947 -21.279 -34.853  0.00  0.00    -0.028 A 
ATOM     13  C   UNL A   1      38.733 -21.468 -33.480  0.00  0.00    -0.057 A 
ATOM     14  C   UNL A   1      38.015 -20.526 -32.739  0.00  0.00    -0.059 A 
ENDBRANCH   7  12
ENDBRANCH   1   7
BRANCH   4  15
ATOM     15  C   UNL A   1      44.546 -19.889 -37.809  0.00  0.00    +0.049 C 
BRANCH  15  16
ATOM     16  N   UNL A   1      44.463 -19.559 -39.228  0.00  0.00    -0.339 N 
ATOM     17  C   UNL A   1      44.831 -20.380 -40.265  0.00  0.00    +0.023 A 
ATOM     18  C   UNL A   1      44.606 -19.704 -41.448  0.00  0.00    -0.019 A 
ATOM     19  C   UNL A   1      44.097 -18.418 -41.124  0.00  0.00    +0.003 A 
ATOM     20  C   UNL A   1      43.701 -17.304 -41.891  0.00  0.00    -0.052 A 
ATOM     21  C   UNL A   1      43.218 -16.159 -41.249  0.00  0.00    -0.061 A 
ATOM     22  C   UNL A   1      43.125 -16.114 -39.863  0.00  0.00    -0.060 A 
ATOM     23  C   UNL A   1      43.511 -17.205 -39.078  0.00  0.00    -0.038 A 
ATOM     24  C   UNL A   1      44.001 -18.351 -39.730  0.00  0.00    +0.050 A 
ATOM     25  C   UNL A   1      44.890 -20.300 -42.788  0.00  0.00    -0.025 C 
ATOM     26  C   UNL A   1      45.042 -21.829 -42.694  0.00  0.00    -0.049 C 
ATOM     27  C   UNL A   1      45.922 -22.244 -41.503  0.00  0.00    -0.047 C 
ATOM     28  C   UNL A   1      45.336 -21.783 -40.157  0.00  0.00    -0.012 C 
ENDBRANCH  15  16
ENDBRANCH   4  15
TORSDOF 4
ENDMDL
MODEL 14
REMARK VINA RESULT:    -7.247      3.857      7.639
REMARK INTER + INTRA:          -9.736
REMARK INTER:                  -8.699
REMARK INTRA:                  -1.037
REMARK UNBOUND:                -0.794
REMARK  Name = cpd350.pdb
REMARK  5 active torsions:
REMARK  status: ('A' for Active; 'I' for Inactive)
REMARK    1  A    between atoms: C_1  and  C_2
REMARK    2  A    between atoms: C_5  and  C_6
REMARK    3  A    between atoms: C_6  and  N_7
REMARK    4  A    between atoms: C_10  and  C_11
REMARK    5  A    between atoms: C_11  and  N_12
REMARK                            x       y       z     vdW  Elec       q    Type
REMARK                         _______ _______ _______ _____ _____    ______ ____
ROOT
ATOM      1  N   UNL A   1      32.578 -37.384 -25.009  0.00  0.00    -0.349 N 
ATOM      2  C   UNL A   1      31.746 -37.965 -25.902  0.00  0.00    +0.005 A 
ATOM      3  C   UNL A   1      32.127 -38.122 -27.232  0.00  0.00    -0.041 A 
ATOM      4  C   UNL A   1      33.379 -37.672 -27.660  0.00  0.00    -0.025 A 
ATOM      5  C   UNL A   1      34.229 -37.106 -26.704  0.00  0.00    -0.041 A 
ATOM      6  C   UNL A   1      33.803 -36.958 -25.389  0.00  0.00    +0.005 A 
ENDROOT
BRANCH   1   7
ATOM      7  C   UNL A   1      32.147 -37.209 -23.599  0.00  0.00    +0.048 C 
BRANCH   7  12
ATOM      8  C   UNL A   1      35.651 -40.113 -19.961  0.00  0.00    -0.040 C 
ATOM      9  C   UNL A   1      34.729 -39.366 -20.881  0.00  0.00    -0.050 A 
ATOM     10  C   UNL A   1      33.977 -40.053 -21.838  0.00  0.00    -0.059 A 
ATOM     11  C   UNL A   1      33.146 -39.359 -22.721  0.00  0.00    -0.057 A 
ATOM     12  C   UNL A   1      33.060 -37.960 -22.667  0.00  0.00    -0.028 A 
ATOM     13  C   UNL A   1      33.831 -37.272 -21.718  0.00  0.00    -0.057 A 
ATOM     14  C   UNL A   1      34.662 -37.970 -20.839  0.00  0.00    -0.059 A 
ENDBRANCH   7  12
ENDBRANCH   1   7
BRANCH   4  15
ATOM     15  C   UNL A   1      33.780 -37.850 -29.114  0.00  0.00    +0.049 C 
BRANCH  15  16
ATOM     16  N   UNL A   1      34.660 -36.791 -29.599  0.00  0.00    -0.339 N 
ATOM     17  C   UNL A   1      35.997 -36.925 -29.878  0.00  0.00    +0.023 A 
ATOM     18  C   UNL A   1      36.471 -35.700 -30.305  0.00  0.00    -0.019 A 
ATOM     19  C   UNL A   1      35.389 -34.780 -30.272  0.00  0.00    +0.003 A 
ATOM     20  C   UNL A   1      35.263 -33.410 -30.578  0.00  0.00    -0.052 A 
ATOM     21  C   UNL A   1      34.020 -32.784 -30.449  0.00  0.00    -0.061 A 
ATOM     22  C   UNL A   1      32.908 -33.503 -30.024  0.00  0.00    -0.060 A 
ATOM     23  C   UNL A   1      33.005 -34.863 -29.715  0.00  0.00    -0.038 A 
ATOM     24  C   UNL A   1      34.260 -35.485 -29.841  0.00  0.00    +0.050 A 
ATOM     25  C   UNL A   1      37.893 -35.475 -30.702  0.00  0.00    -0.025 C 
ATOM     26  C   UNL A   1      38.612 -36.809 -30.972  0.00  0.00    -0.049 C 
ATOM     27  C   UNL A   1      38.307 -37.853 -29.885  0.00  0.00    -0.047 C 
ATOM     28  C   UNL A   1      36.806 -38.179 -29.793  0.00  0.00    -0.012 C 
ENDBRANCH  15  16
ENDBRANCH   4  15
TORSDOF 4
ENDMDL
MODEL 15
REMARK VINA RESULT:    -7.218     15.518     18.823
REMARK INTER + INTRA:          -9.700
REMARK INTER:                  -8.620
REMARK INTRA:                  -1.079
REMARK UNBOUND:                -0.794
REMARK  Name = cpd350.pdb
REMARK  5 active torsions:
REMARK  status: ('A' for Active; 'I' for Inactive)
REMARK    1  A    between atoms: C_1  and  C_2
REMARK    2  A    between atoms: C_5  and  C_6
REMARK    3  A    between atoms: C_6  and  N_7
REMARK    4  A    between atoms: C_10  and  C_11
REMARK    5  A    between atoms: C_11  and  N_12
REMARK                            x       y       z     vdW  Elec       q    Type
REMARK                         _______ _______ _______ _____ _____    ______ ____
ROOT
ATOM      1  N   UNL A   1      43.628 -19.636 -37.745  0.00  0.00    -0.349 N 
ATOM      2  C   UNL A   1      44.231 -19.206 -36.614  0.00  0.00    +0.005 A 
ATOM      3  C   UNL A   1      43.785 -19.628 -35.365  0.00  0.00    -0.041 A 
ATOM      4  C   UNL A   1      42.698 -20.500 -35.267  0.00  0.00    -0.025 A 
ATOM      5  C   UNL A   1      42.117 -20.953 -36.457  0.00  0.00    -0.041 A 
ATOM      6  C   UNL A   1      42.588 -20.497 -37.684  0.00  0.00    +0.005 A 
ENDROOT
BRANCH   1   7
ATOM      7  C   UNL A   1      44.107 -19.161 -39.068  0.00  0.00    +0.048 C 
BRANCH   7  12
ATOM      8  C   UNL A   1      47.244 -23.311 -41.689  0.00  0.00    -0.040 C 
ATOM      9  C   UNL A   1      46.422 -22.260 -41.001  0.00  0.00    -0.050 A 
ATOM     10  C   UNL A   1      45.266 -21.759 -41.606  0.00  0.00    -0.059 A 
ATOM     11  C   UNL A   1      44.519 -20.755 -40.987  0.00  0.00    -0.057 A 
ATOM     12  C   UNL A   1      44.922 -20.226 -39.752  0.00  0.00    -0.028 A 
ATOM     13  C   UNL A   1      46.094 -20.716 -39.157  0.00  0.00    -0.057 A 
ATOM     14  C   UNL A   1      46.838 -21.720 -39.781  0.00  0.00    -0.059 A 
ENDBRANCH   7  12
ENDBRANCH   1   7
BRANCH   4  15
ATOM     15  C   UNL A   1      42.222 -20.952 -33.897  0.00  0.00    +0.049 C 
BRANCH  15  16
ATOM     16  N   UNL A   1      40.861 -20.521 -33.593  0.00  0.00    -0.339 N 
ATOM     17  C   UNL A   1      39.747 -21.322 -33.599  0.00  0.00    +0.023 A 
ATOM     18  C   UNL A   1      38.656 -20.543 -33.265  0.00  0.00    -0.019 A 
ATOM     19  C   UNL A   1      39.118 -19.215 -33.063  0.00  0.00    +0.003 A 
ATOM     20  C   UNL A   1      38.484 -18.003 -32.722  0.00  0.00    -0.052 A 
ATOM     21  C   UNL A   1      39.245 -16.839 -32.583  0.00  0.00    -0.061 A 
ATOM     22  C   UNL A   1      40.622 -16.869 -32.776  0.00  0.00    -0.060 A 
ATOM     23  C   UNL A   1      41.277 -18.058 -33.114  0.00  0.00    -0.038 A 
ATOM     24  C   UNL A   1      40.503 -19.224 -33.258  0.00  0.00    +0.050 A 
ATOM     25  C   UNL A   1      37.269 -21.089 -33.170  0.00  0.00    -0.025 C 
ATOM     26  C   UNL A   1      37.283 -22.624 -33.070  0.00  0.00    -0.049 C 
ATOM     27  C   UNL A   1      38.254 -23.255 -34.082  0.00  0.00    -0.047 C 
ATOM     28  C   UNL A   1      39.705 -22.793 -33.864  0.00  0.00    -0.012 C 
ENDBRANCH  15  16
ENDBRANCH   4  15
TORSDOF 4
ENDMDL
MODEL 16
REMARK VINA RESULT:    -7.166     17.997     20.206
REMARK INTER + INTRA:          -9.636
REMARK INTER:                  -8.486
REMARK INTRA:                  -1.149
REMARK UNBOUND:                -0.794
REMARK  Name = cpd350.pdb
REMARK  5 active torsions:
REMARK  status: ('A' for Active; 'I' for Inactive)
REMARK    1  A    between atoms: C_1  and  C_2
REMARK    2  A    between atoms: C_5  and  C_6
REMARK    3  A    between atoms: C_6  and  N_7
REMARK    4  A    between atoms: C_10  and  C_11
REMARK    5  A    between atoms: C_11  and  N_12
REMARK                            x       y       z     vdW  Elec       q    Type
REMARK                         _______ _______ _______ _____ _____    ______ ____
ROOT
ATOM      1  N   UNL A   1      44.804 -18.937 -34.203  0.00  0.00    -0.349 N 
ATOM      2  C   UNL A   1      45.628 -17.898 -34.466  0.00  0.00    +0.005 A 
ATOM      3  C   UNL A   1      46.471 -17.921 -35.573  0.00  0.00    -0.041 A 
ATOM      4  C   UNL A   1      46.480 -19.029 -36.425  0.00  0.00    -0.025 A 
ATOM      5  C   UNL A   1      45.592 -20.073 -36.144  0.00  0.00    -0.041 A 
ATOM      6  C   UNL A   1      44.775 -20.014 -35.021  0.00  0.00    +0.005 A 
ENDROOT
BRANCH   1   7
ATOM      7  C   UNL A   1      43.924 -18.903 -33.008  0.00  0.00    +0.048 C 
BRANCH   7  12
ATOM      8  C   UNL A   1      38.384 -19.836 -34.552  0.00  0.00    -0.040 C 
ATOM      9  C   UNL A   1      39.820 -19.610 -34.174  0.00  0.00    -0.050 A 
ATOM     10  C   UNL A   1      40.453 -20.459 -33.262  0.00  0.00    -0.059 A 
ATOM     11  C   UNL A   1      41.776 -20.231 -32.880  0.00  0.00    -0.057 A 
ATOM     12  C   UNL A   1      42.489 -19.140 -33.397  0.00  0.00    -0.028 A 
ATOM     13  C   UNL A   1      41.844 -18.277 -34.297  0.00  0.00    -0.057 A 
ATOM     14  C   UNL A   1      40.520 -18.509 -34.675  0.00  0.00    -0.059 A 
ENDBRANCH   7  12
ENDBRANCH   1   7
BRANCH   4  15
ATOM     15  C   UNL A   1      47.407 -19.040 -37.629  0.00  0.00    +0.049 C 
BRANCH  15  16
ATOM     16  N   UNL A   1      46.703 -19.242 -38.891  0.00  0.00    -0.339 N 
ATOM     17  C   UNL A   1      46.741 -20.380 -39.657  0.00  0.00    +0.023 A 
ATOM     18  C   UNL A   1      45.952 -20.175 -40.771  0.00  0.00    -0.019 A 
ATOM     19  C   UNL A   1      45.424 -18.858 -40.692  0.00  0.00    +0.003 A 
ATOM     20  C   UNL A   1      44.581 -18.094 -41.524  0.00  0.00    -0.052 A 
ATOM     21  C   UNL A   1      44.228 -16.795 -41.145  0.00  0.00    -0.061 A 
ATOM     22  C   UNL A   1      44.701 -16.255 -39.954  0.00  0.00    -0.060 A 
ATOM     23  C   UNL A   1      45.539 -16.991 -39.110  0.00  0.00    -0.038 A 
ATOM     24  C   UNL A   1      45.894 -18.295 -39.502  0.00  0.00    +0.050 A 
ATOM     25  C   UNL A   1      45.756 -21.212 -41.828  0.00  0.00    -0.025 C 
ATOM     26  C   UNL A   1      46.171 -22.605 -41.322  0.00  0.00    -0.049 C 
ATOM     27  C   UNL A   1      47.512 -22.564 -40.570  0.00  0.00    -0.047 C 
ATOM     28  C   UNL A   1      47.460 -21.651 -39.333  0.00  0.00    -0.012 C 
ENDBRANCH  15  16
ENDBRANCH   4  15
TORSDOF 4
ENDMDL
MODEL 17
REMARK VINA RESULT:    -7.127     16.822     20.028
REMARK INTER + INTRA:          -9.588
REMARK INTER:                  -8.636
REMARK INTRA:                  -0.953
REMARK UNBOUND:                -0.794
REMARK  Name = cpd350.pdb
REMARK  5 active torsions:
REMARK  status: ('A' for Active; 'I' for Inactive)
REMARK    1  A    between atoms: C_1  and  C_2
REMARK    2  A    between atoms: C_5  and  C_6
REMARK    3  A    between atoms: C_6  and  N_7
REMARK    4  A    between atoms: C_10  and  C_11
REMARK    5  A    between atoms: C_11  and  N_12
REMARK                            x       y       z     vdW  Elec       q    Type
REMARK                         _______ _______ _______ _____ _____    ______ ____
ROOT
ATOM      1  N   UNL A   1      45.158 -19.275 -37.972  0.00  0.00    -0.349 N 
ATOM      2  C   UNL A   1      43.997 -19.889 -37.650  0.00  0.00    +0.005 A 
ATOM      3  C   UNL A   1      43.694 -20.189 -36.326  0.00  0.00    -0.041 A 
ATOM      4  C   UNL A   1      44.595 -19.863 -35.309  0.00  0.00    -0.025 A 
ATOM      5  C   UNL A   1      45.772 -19.197 -35.671  0.00  0.00    -0.041 A 
ATOM      6  C   UNL A   1      46.040 -18.927 -37.008  0.00  0.00    +0.005 A 
ENDROOT
BRANCH   1   7
ATOM      7  C   UNL A   1      45.472 -18.978 -39.392  0.00  0.00    +0.048 C 
BRANCH   7  12
ATOM      8  C   UNL A   1      47.190 -23.782 -42.206  0.00  0.00    -0.040 C 
ATOM      9  C   UNL A   1      46.760 -22.530 -41.498  0.00  0.00    -0.050 A 
ATOM     10  C   UNL A   1      47.508 -22.032 -40.427  0.00  0.00    -0.059 A 
ATOM     11  C   UNL A   1      47.092 -20.888 -39.742  0.00  0.00    -0.057 A 
ATOM     12  C   UNL A   1      45.912 -20.226 -40.111  0.00  0.00    -0.028 A 
ATOM     13  C   UNL A   1      45.153 -20.740 -41.173  0.00  0.00    -0.057 A 
ATOM     14  C   UNL A   1      45.573 -21.884 -41.855  0.00  0.00    -0.059 A 
ENDBRANCH   7  12
ENDBRANCH   1   7
BRANCH   4  15
ATOM     15  C   UNL A   1      44.250 -20.197 -33.868  0.00  0.00    +0.049 C 
BRANCH  15  16
ATOM     16  N   UNL A   1      43.002 -19.586 -33.421  0.00  0.00    -0.339 N 
ATOM     17  C   UNL A   1      42.789 -18.243 -33.235  0.00  0.00    +0.023 A 
ATOM     18  C   UNL A   1      41.488 -18.071 -32.804  0.00  0.00    -0.019 A 
ATOM     19  C   UNL A   1      40.889 -19.355 -32.708  0.00  0.00    +0.003 A 
ATOM     20  C   UNL A   1      39.612 -19.810 -32.321  0.00  0.00    -0.052 A 
ATOM     21  C   UNL A   1      39.327 -21.178 -32.350  0.00  0.00    -0.061 A 
ATOM     22  C   UNL A   1      40.292 -22.092 -32.760  0.00  0.00    -0.060 A 
ATOM     23  C   UNL A   1      41.567 -21.668 -33.149  0.00  0.00    -0.038 A 
ATOM     24  C   UNL A   1      41.848 -20.290 -33.112  0.00  0.00    +0.050 A 
ATOM     25  C   UNL A   1      40.904 -16.729 -32.506  0.00  0.00    -0.025 C 
ATOM     26  C   UNL A   1      41.754 -15.604 -33.124  0.00  0.00    -0.049 C 
ATOM     27  C   UNL A   1      43.257 -15.824 -32.881  0.00  0.00    -0.047 C 
ATOM     28  C   UNL A   1      43.761 -17.139 -33.500  0.00  0.00    -0.012 C 
ENDBRANCH  15  16
ENDBRANCH   4  15
TORSDOF 4
ENDMDL
MODEL 18
REMARK VINA RESULT:    -6.897     16.223     18.485
REMARK INTER + INTRA:          -9.305
REMARK INTER:                  -8.515
REMARK INTRA:                  -0.790
REMARK UNBOUND:                -0.794
REMARK  Name = cpd350.pdb
REMARK  5 active torsions:
REMARK  status: ('A' for Active; 'I' for Inactive)
REMARK    1  A    between atoms: C_1  and  C_2
REMARK    2  A    between atoms: C_5  and  C_6
REMARK    3  A    between atoms: C_6  and  N_7
REMARK    4  A    between atoms: C_10  and  C_11
REMARK    5  A    between atoms: C_11  and  N_12
REMARK                            x       y       z     vdW  Elec       q    Type
REMARK                         _______ _______ _______ _____ _____    ______ ____
ROOT
ATOM      1  N   UNL A   1      42.279 -19.638 -34.462  0.00  0.00    -0.349 N 
ATOM      2  C   UNL A   1      41.738 -18.527 -35.010  0.00  0.00    +0.005 A 
ATOM      3  C   UNL A   1      42.177 -18.055 -36.243  0.00  0.00    -0.041 A 
ATOM      4  C   UNL A   1      43.194 -18.725 -36.929  0.00  0.00    -0.025 A 
ATOM      5  C   UNL A   1      43.709 -19.891 -36.351  0.00  0.00    -0.041 A 
ATOM      6  C   UNL A   1      43.249 -20.320 -35.111  0.00  0.00    +0.005 A 
ENDROOT
BRANCH   1   7
ATOM      7  C   UNL A   1      41.810 -20.116 -33.137  0.00  0.00    +0.048 C 
BRANCH   7  12
ATOM      8  C   UNL A   1      38.014 -24.487 -33.795  0.00  0.00    -0.040 C 
ATOM      9  C   UNL A   1      39.005 -23.369 -33.646  0.00  0.00    -0.050 A 
ATOM     10  C   UNL A   1      40.110 -23.512 -32.802  0.00  0.00    -0.059 A 
ATOM     11  C   UNL A   1      41.015 -22.463 -32.631  0.00  0.00    -0.057 A 
ATOM     12  C   UNL A   1      40.824 -21.243 -33.297  0.00  0.00    -0.028 A 
ATOM     13  C   UNL A   1      39.704 -21.095 -34.128  0.00  0.00    -0.057 A 
ATOM     14  C   UNL A   1      38.801 -22.148 -34.294  0.00  0.00    -0.059 A 
ENDBRANCH   7  12
ENDBRANCH   1   7
BRANCH   4  15
ATOM     15  C   UNL A   1      43.663 -18.198 -38.274  0.00  0.00    +0.049 C 
BRANCH  15  16
ATOM     16  N   UNL A   1      43.771 -19.239 -39.291  0.00  0.00    -0.339 N 
ATOM     17  C   UNL A   1      44.890 -19.517 -40.037  0.00  0.00    +0.023 A 
ATOM     18  C   UNL A   1      44.588 -20.562 -40.888  0.00  0.00    -0.019 A 
ATOM     19  C   UNL A   1      43.233 -20.926 -40.666  0.00  0.00    +0.003 A 
ATOM     20  C   UNL A   1      42.378 -21.894 -41.231  0.00  0.00    -0.052 A 
ATOM     21  C   UNL A   1      41.063 -22.009 -40.770  0.00  0.00    -0.061 A 
ATOM     22  C   UNL A   1      40.595 -21.178 -39.757  0.00  0.00    -0.060 A 
ATOM     23  C   UNL A   1      41.423 -20.209 -39.180  0.00  0.00    -0.038 A 
ATOM     24  C   UNL A   1      42.742 -20.096 -39.653  0.00  0.00    +0.050 A 
ATOM     25  C   UNL A   1      45.578 -21.137 -41.848  0.00  0.00    -0.025 C 
ATOM     26  C   UNL A   1      47.014 -20.726 -41.477  0.00  0.00    -0.049 C 
ATOM     27  C   UNL A   1      47.109 -19.231 -41.127  0.00  0.00    -0.047 C 
ATOM     28  C   UNL A   1      46.225 -18.856 -39.925  0.00  0.00    -0.012 C 
ENDBRANCH  15  16
ENDBRANCH   4  15
TORSDOF 4
ENDMDL
MODEL 19
REMARK VINA RESULT:    -6.893     16.536     18.669
REMARK INTER + INTRA:          -9.299
REMARK INTER:                  -8.129
REMARK INTRA:                  -1.170
REMARK UNBOUND:                -0.794
REMARK  Name = cpd350.pdb
REMARK  5 active torsions:
REMARK  status: ('A' for Active; 'I' for Inactive)
REMARK    1  A    between atoms: C_1  and  C_2
REMARK    2  A    between atoms: C_5  and  C_6
REMARK    3  A    between atoms: C_6  and  N_7
REMARK    4  A    between atoms: C_10  and  C_11
REMARK    5  A    between atoms: C_11  and  N_12
REMARK                            x       y       z     vdW  Elec       q    Type
REMARK                         _______ _______ _______ _____ _____    ______ ____
ROOT
ATOM      1  N   UNL A   1      39.911 -19.780 -36.972  0.00  0.00    -0.349 N 
ATOM      2  C   UNL A   1      40.538 -20.691 -37.748  0.00  0.00    +0.005 A 
ATOM      3  C   UNL A   1      41.484 -20.294 -38.688  0.00  0.00    -0.041 A 
ATOM      4  C   UNL A   1      41.792 -18.940 -38.845  0.00  0.00    -0.025 A 
ATOM      5  C   UNL A   1      41.151 -18.026 -38.003  0.00  0.00    -0.041 A 
ATOM      6  C   UNL A   1      40.203 -18.465 -37.085  0.00  0.00    +0.005 A 
ENDROOT
BRANCH   1   7
ATOM      7  C   UNL A   1      38.891 -20.220 -35.986  0.00  0.00    +0.048 C 
BRANCH   7  12
ATOM      8  C   UNL A   1      41.376 -23.402 -31.786  0.00  0.00    -0.040 C 
ATOM      9  C   UNL A   1      40.754 -22.589 -32.884  0.00  0.00    -0.050 A 
ATOM     10  C   UNL A   1      41.063 -21.232 -33.021  0.00  0.00    -0.059 A 
ATOM     11  C   UNL A   1      40.460 -20.463 -34.018  0.00  0.00    -0.057 A 
ATOM     12  C   UNL A   1      39.526 -21.038 -34.893  0.00  0.00    -0.028 A 
ATOM     13  C   UNL A   1      39.203 -22.395 -34.741  0.00  0.00    -0.057 A 
ATOM     14  C   UNL A   1      39.809 -23.159 -33.741  0.00  0.00    -0.059 A 
ENDBRANCH   7  12
ENDBRANCH   1   7
BRANCH   4  15
ATOM     15  C   UNL A   1      42.827 -18.523 -39.875  0.00  0.00    +0.049 C 
BRANCH  15  16
ATOM     16  N   UNL A   1      44.084 -19.253 -39.753  0.00  0.00    -0.339 N 
ATOM     17  C   UNL A   1      45.026 -19.069 -38.772  0.00  0.00    +0.023 A 
ATOM     18  C   UNL A   1      46.069 -19.943 -39.008  0.00  0.00    -0.019 A 
ATOM     19  C   UNL A   1      45.761 -20.678 -40.185  0.00  0.00    +0.003 A 
ATOM     20  C   UNL A   1      46.432 -21.683 -40.910  0.00  0.00    -0.052 A 
ATOM     21  C   UNL A   1      45.836 -22.225 -42.053  0.00  0.00    -0.061 A 
ATOM     22  C   UNL A   1      44.587 -21.783 -42.475  0.00  0.00    -0.060 A 
ATOM     23  C   UNL A   1      43.900 -20.787 -41.773  0.00  0.00    -0.038 A 
ATOM     24  C   UNL A   1      44.508 -20.242 -40.629  0.00  0.00    +0.050 A 
ATOM     25  C   UNL A   1      47.274 -20.023 -38.130  0.00  0.00    -0.025 C 
ATOM     26  C   UNL A   1      47.014 -19.354 -36.769  0.00  0.00    -0.049 C 
ATOM     27  C   UNL A   1      46.305 -17.998 -36.925  0.00  0.00    -0.047 C 
ATOM     28  C   UNL A   1      44.935 -18.132 -37.611  0.00  0.00    -0.012 C 
ENDBRANCH  15  16
ENDBRANCH   4  15
TORSDOF 4
ENDMDL
MODEL 20
REMARK VINA RESULT:    -6.846     16.549     18.754
REMARK INTER + INTRA:          -9.242
REMARK INTER:                  -8.030
REMARK INTRA:                  -1.212
REMARK UNBOUND:                -0.794
REMARK  Name = cpd350.pdb
REMARK  5 active torsions:
REMARK  status: ('A' for Active; 'I' for Inactive)
REMARK    1  A    between atoms: C_1  and  C_2
REMARK    2  A    between atoms: C_5  and  C_6
REMARK    3  A    between atoms: C_6  and  N_7
REMARK    4  A    between atoms: C_10  and  C_11
REMARK    5  A    between atoms: C_11  and  N_12
REMARK                            x       y       z     vdW  Elec       q    Type
REMARK                         _______ _______ _______ _____ _____    ______ ____
ROOT
ATOM      1  N   UNL A   1      40.039 -19.970 -37.027  0.00  0.00    -0.349 N 
ATOM      2  C   UNL A   1      40.302 -18.653 -37.181  0.00  0.00    +0.005 A 
ATOM      3  C   UNL A   1      41.284 -18.222 -38.069  0.00  0.00    -0.041 A 
ATOM      4  C   UNL A   1      42.017 -19.153 -38.809  0.00  0.00    -0.025 A 
ATOM      5  C   UNL A   1      41.698 -20.507 -38.652  0.00  0.00    -0.041 A 
ATOM      6  C   UNL A   1      40.717 -20.894 -37.745  0.00  0.00    +0.005 A 
ENDROOT
BRANCH   1   7
ATOM      7  C   UNL A   1      39.000 -20.412 -36.063  0.00  0.00    +0.048 C 
BRANCH   7  12
ATOM      8  C   UNL A   1      41.321 -23.704 -31.853  0.00  0.00    -0.040 C 
ATOM      9  C   UNL A   1      40.704 -22.849 -32.922  0.00  0.00    -0.050 A 
ATOM     10  C   UNL A   1      39.799 -23.400 -33.834  0.00  0.00    -0.059 A 
ATOM     11  C   UNL A   1      39.251 -22.617 -34.852  0.00  0.00    -0.057 A 
ATOM     12  C   UNL A   1      39.607 -21.267 -34.982  0.00  0.00    -0.028 A 
ATOM     13  C   UNL A   1      40.531 -20.722 -34.078  0.00  0.00    -0.057 A 
ATOM     14  C   UNL A   1      41.077 -21.509 -33.062  0.00  0.00    -0.059 A 
ENDBRANCH   7  12
ENDBRANCH   1   7
BRANCH   4  15
ATOM     15  C   UNL A   1      43.086 -18.668 -39.774  0.00  0.00    +0.049 C 
BRANCH  15  16
ATOM     16  N   UNL A   1      44.392 -19.271 -39.531  0.00  0.00    -0.339 N 
ATOM     17  C   UNL A   1      45.007 -20.202 -40.331  0.00  0.00    +0.023 A 
ATOM     18  C   UNL A   1      46.221 -20.525 -39.759  0.00  0.00    -0.019 A 
ATOM     19  C   UNL A   1      46.348 -19.777 -38.558  0.00  0.00    +0.003 A 
ATOM     20  C   UNL A   1      47.341 -19.693 -37.562  0.00  0.00    -0.052 A 
ATOM     21  C   UNL A   1      47.164 -18.824 -36.480  0.00  0.00    -0.061 A 
ATOM     22  C   UNL A   1      46.018 -18.043 -36.383  0.00  0.00    -0.060 A 
ATOM     23  C   UNL A   1      45.017 -18.107 -37.358  0.00  0.00    -0.038 A 
ATOM     24  C   UNL A   1      45.200 -18.987 -38.439  0.00  0.00    +0.050 A 
ATOM     25  C   UNL A   1      47.166 -21.510 -40.366  0.00  0.00    -0.025 C 
ATOM     26  C   UNL A   1      46.823 -21.771 -41.843  0.00  0.00    -0.049 C 
ATOM     27  C   UNL A   1      45.313 -21.975 -42.052  0.00  0.00    -0.047 C 
ATOM     28  C   UNL A   1      44.494 -20.743 -41.627  0.00  0.00    -0.012 C 
ENDBRANCH  15  16
ENDBRANCH   4  15
TORSDOF 4
ENDMDL
