REMARK  Name = cpd349.pdb
REMARK  4 active torsions:
REMARK  status: ('A' for Active; 'I' for Inactive)
REMARK    1  A    between atoms: N_7  and  C_8
REMARK    2  A    between atoms: C_8  and  C_9
REMARK    3  A    between atoms: N_12  and  C_13
REMARK    4  A    between atoms: C_13  and  C_14
REMARK                            x       y       z     vdW  Elec       q    Type
REMARK                         _______ _______ _______ _____ _____    ______ ____
ROOT
ATOM      1  C   UNL A   1      -1.397   0.649   0.765  0.00  0.00    -0.027 A 
ATOM      2  C   UNL A   1      -1.323   1.360  -0.434  0.00  0.00    -0.041 A 
ATOM      3  C   UNL A   1      -0.181   2.096  -0.733  0.00  0.00    +0.005 A 
ATOM      4  N   UNL A   1       0.865   2.126   0.125  0.00  0.00    -0.349 N 
ATOM      5  C   UNL A   1       0.818   1.440   1.293  0.00  0.00    +0.005 A 
ATOM      6  C   UNL A   1      -0.302   0.688   1.629  0.00  0.00    -0.041 A 
ENDROOT
BRANCH   1   7
ATOM      7  C   UNL A   1      -2.616  -0.186   1.097  0.00  0.00    +0.047 C 
BRANCH   7  14
ATOM      8  O   UNL A   1      -1.315  -2.477   2.275  0.00  0.00    -0.275 OA
ATOM      9  C   UNL A   1      -1.892  -2.549   1.200  0.00  0.00    +0.223 C 
ATOM     10  C   UNL A   1      -1.975  -3.782   0.350  0.00  0.00    +0.033 C 
ATOM     11  C   UNL A   1      -2.683  -3.324  -0.914  0.00  0.00    +0.033 C 
ATOM     12  C   UNL A   1      -2.916  -1.858  -0.701  0.00  0.00    +0.223 C 
ATOM     13  O   UNL A   1      -3.358  -1.090  -1.543  0.00  0.00    -0.275 OA
ATOM     14  N   UNL A   1      -2.515  -1.523   0.556  0.00  0.00    -0.238 N 
ENDBRANCH   7  14
ENDBRANCH   1   7
BRANCH   4  15
ATOM     15  C   UNL A   1       2.066   2.936  -0.201  0.00  0.00    +0.048 C 
BRANCH  15  16
ATOM     16  C   UNL A   1       3.282   2.070  -0.408  0.00  0.00    -0.025 A 
ATOM     17  C   UNL A   1       4.453   2.303   0.335  0.00  0.00    -0.057 A 
ATOM     18  C   UNL A   1       5.587   1.508   0.146  0.00  0.00    -0.059 A 
ATOM     19  C   UNL A   1       5.568   0.475  -0.789  0.00  0.00    -0.026 A 
ATOM     20  C   UNL A   1       4.419   0.251  -1.533  0.00  0.00    +0.124 A 
ATOM     21  F   UNL A   1       4.394  -0.737  -2.435  0.00  0.00    -0.205 F 
ATOM     22  C   UNL A   1       3.282   1.036  -1.356  0.00  0.00    -0.022 A 
ENDBRANCH  15  16
ENDBRANCH   4  15
TORSDOF 4
