MODEL 1
REMARK VINA RESULT:    -7.358      0.000      0.000
REMARK INTER + INTRA:          -9.260
REMARK INTER:                  -9.078
REMARK INTRA:                  -0.182
REMARK UNBOUND:                -0.182
REMARK  Name = cpd349.pdb
REMARK  4 active torsions:
REMARK  status: ('A' for Active; 'I' for Inactive)
REMARK    1  A    between atoms: N_7  and  C_8
REMARK    2  A    between atoms: C_8  and  C_9
REMARK    3  A    between atoms: N_12  and  C_13
REMARK    4  A    between atoms: C_13  and  C_14
REMARK                            x       y       z     vdW  Elec       q    Type
REMARK                         _______ _______ _______ _____ _____    ______ ____
ROOT
ATOM      1  C   UNL A   1      34.936 -34.008 -29.956  0.00  0.00    -0.027 A 
ATOM      2  C   UNL A   1      36.043 -33.906 -30.800  0.00  0.00    -0.041 A 
ATOM      3  C   UNL A   1      36.814 -35.032 -31.070  0.00  0.00    +0.005 A 
ATOM      4  N   UNL A   1      36.499 -36.231 -30.526  0.00  0.00    -0.349 N 
ATOM      5  C   UNL A   1      35.426 -36.355 -29.706  0.00  0.00    +0.005 A 
ATOM      6  C   UNL A   1      34.626 -35.256 -29.414  0.00  0.00    -0.041 A 
ENDROOT
BRANCH   1   7
ATOM      7  C   UNL A   1      34.063 -32.803 -29.675  0.00  0.00    +0.047 C 
BRANCH   7  14
ATOM      8  O   UNL A   1      33.243 -32.752 -32.441  0.00  0.00    -0.275 OA
ATOM      9  C   UNL A   1      32.443 -32.948 -31.539  0.00  0.00    +0.223 C 
ATOM     10  C   UNL A   1      30.969 -33.148 -31.726  0.00  0.00    +0.033 C 
ATOM     11  C   UNL A   1      30.415 -33.231 -30.313  0.00  0.00    +0.033 C 
ATOM     12  C   UNL A   1      31.612 -33.036 -29.431  0.00  0.00    +0.223 C 
ATOM     13  O   UNL A   1      31.574 -32.917 -28.215  0.00  0.00    -0.275 OA
ATOM     14  N   UNL A   1      32.729 -32.970 -30.207  0.00  0.00    -0.238 N 
ENDBRANCH   7  14
ENDBRANCH   1   7
BRANCH   4  15
ATOM     15  C   UNL A   1      37.347 -37.416 -30.806  0.00  0.00    +0.048 C 
BRANCH  15  16
ATOM     16  C   UNL A   1      38.814 -37.077 -30.748  0.00  0.00    -0.025 A 
ATOM     17  C   UNL A   1      39.590 -37.474 -29.644  0.00  0.00    -0.057 A 
ATOM     18  C   UNL A   1      40.951 -37.159 -29.579  0.00  0.00    -0.059 A 
ATOM     19  C   UNL A   1      41.552 -36.442 -30.612  0.00  0.00    -0.026 A 
ATOM     20  C   UNL A   1      40.786 -36.038 -31.696  0.00  0.00    +0.124 A 
ATOM     21  F   UNL A   1      41.356 -35.347 -32.690  0.00  0.00    -0.205 F 
ATOM     22  C   UNL A   1      39.430 -36.343 -31.773  0.00  0.00    -0.022 A 
ENDBRANCH  15  16
ENDBRANCH   4  15
TORSDOF 4
ENDMDL
MODEL 2
REMARK VINA RESULT:    -7.202      1.533      2.592
REMARK INTER + INTRA:          -9.069
REMARK INTER:                  -8.547
REMARK INTRA:                  -0.522
REMARK UNBOUND:                -0.182
REMARK  Name = cpd349.pdb
REMARK  4 active torsions:
REMARK  status: ('A' for Active; 'I' for Inactive)
REMARK    1  A    between atoms: N_7  and  C_8
REMARK    2  A    between atoms: C_8  and  C_9
REMARK    3  A    between atoms: N_12  and  C_13
REMARK    4  A    between atoms: C_13  and  C_14
REMARK                            x       y       z     vdW  Elec       q    Type
REMARK                         _______ _______ _______ _____ _____    ______ ____
ROOT
ATOM      1  C   UNL A   1      34.218 -36.240 -30.059  0.00  0.00    -0.027 A 
ATOM      2  C   UNL A   1      34.692 -37.162 -30.993  0.00  0.00    -0.041 A 
ATOM      3  C   UNL A   1      35.992 -37.647 -30.890  0.00  0.00    +0.005 A 
ATOM      4  N   UNL A   1      36.803 -37.237 -29.887  0.00  0.00    -0.349 N 
ATOM      5  C   UNL A   1      36.363 -36.346 -28.965  0.00  0.00    +0.005 A 
ATOM      6  C   UNL A   1      35.070 -35.841 -29.028  0.00  0.00    -0.041 A 
ENDROOT
BRANCH   1   7
ATOM      7  C   UNL A   1      32.796 -35.725 -30.131  0.00  0.00    +0.047 C 
BRANCH   7  14
ATOM      8  O   UNL A   1      32.140 -33.780 -28.102  0.00  0.00    -0.275 OA
ATOM      9  C   UNL A   1      32.447 -33.445 -29.236  0.00  0.00    +0.223 C 
ATOM     10  C   UNL A   1      32.493 -32.030 -29.732  0.00  0.00    +0.033 C 
ATOM     11  C   UNL A   1      32.809 -32.157 -31.213  0.00  0.00    +0.033 C 
ATOM     12  C   UNL A   1      32.883 -33.636 -31.453  0.00  0.00    +0.223 C 
ATOM     13  O   UNL A   1      33.002 -34.161 -32.550  0.00  0.00    -0.275 OA
ATOM     14  N   UNL A   1      32.752 -34.286 -30.264  0.00  0.00    -0.238 N 
ENDBRANCH   7  14
ENDBRANCH   1   7
BRANCH   4  15
ATOM     15  C   UNL A   1      38.195 -37.748 -29.806  0.00  0.00    +0.048 C 
BRANCH  15  16
ATOM     16  C   UNL A   1      39.178 -36.783 -30.419  0.00  0.00    -0.025 A 
ATOM     17  C   UNL A   1      38.722 -35.717 -31.214  0.00  0.00    -0.057 A 
ATOM     18  C   UNL A   1      39.627 -34.820 -31.791  0.00  0.00    -0.059 A 
ATOM     19  C   UNL A   1      40.996 -34.980 -31.585  0.00  0.00    -0.026 A 
ATOM     20  C   UNL A   1      41.449 -36.038 -30.812  0.00  0.00    +0.124 A 
ATOM     21  F   UNL A   1      42.762 -36.200 -30.612  0.00  0.00    -0.205 F 
ATOM     22  C   UNL A   1      40.559 -36.940 -30.232  0.00  0.00    -0.022 A 
ENDBRANCH  15  16
ENDBRANCH   4  15
TORSDOF 4
ENDMDL
MODEL 3
REMARK VINA RESULT:    -6.849      1.679      2.321
REMARK INTER + INTRA:          -8.633
REMARK INTER:                  -8.018
REMARK INTRA:                  -0.615
REMARK UNBOUND:                -0.182
REMARK  Name = cpd349.pdb
REMARK  4 active torsions:
REMARK  status: ('A' for Active; 'I' for Inactive)
REMARK    1  A    between atoms: N_7  and  C_8
REMARK    2  A    between atoms: C_8  and  C_9
REMARK    3  A    between atoms: N_12  and  C_13
REMARK    4  A    between atoms: C_13  and  C_14
REMARK                            x       y       z     vdW  Elec       q    Type
REMARK                         _______ _______ _______ _____ _____    ______ ____
ROOT
ATOM      1  C   UNL A   1      33.951 -36.276 -29.474  0.00  0.00    -0.027 A 
ATOM      2  C   UNL A   1      35.009 -35.994 -28.608  0.00  0.00    -0.041 A 
ATOM      3  C   UNL A   1      36.281 -36.484 -28.886  0.00  0.00    +0.005 A 
ATOM      4  N   UNL A   1      36.507 -37.228 -29.993  0.00  0.00    -0.349 N 
ATOM      5  C   UNL A   1      35.496 -37.511 -30.851  0.00  0.00    +0.005 A 
ATOM      6  C   UNL A   1      34.211 -37.037 -30.614  0.00  0.00    -0.041 A 
ENDROOT
BRANCH   1   7
ATOM      7  C   UNL A   1      32.565 -35.726 -29.209  0.00  0.00    +0.047 C 
BRANCH   7  14
ATOM      8  O   UNL A   1      31.038 -35.966 -31.646  0.00  0.00    -0.275 OA
ATOM      9  C   UNL A   1      31.470 -34.889 -31.263  0.00  0.00    +0.223 C 
ATOM     10  C   UNL A   1      31.308 -33.589 -31.993  0.00  0.00    +0.033 C 
ATOM     11  C   UNL A   1      32.114 -32.592 -31.177  0.00  0.00    +0.033 C 
ATOM     12  C   UNL A   1      32.702 -33.409 -30.065  0.00  0.00    +0.223 C 
ATOM     13  O   UNL A   1      33.517 -33.000 -29.252  0.00  0.00    -0.275 OA
ATOM     14  N   UNL A   1      32.216 -34.679 -30.143  0.00  0.00    -0.238 N 
ENDBRANCH   7  14
ENDBRANCH   1   7
BRANCH   4  15
ATOM     15  C   UNL A   1      37.866 -37.762 -30.261  0.00  0.00    +0.048 C 
BRANCH  15  16
ATOM     16  C   UNL A   1      38.787 -36.696 -30.798  0.00  0.00    -0.025 A 
ATOM     17  C   UNL A   1      38.315 -35.756 -31.732  0.00  0.00    -0.057 A 
ATOM     18  C   UNL A   1      39.163 -34.767 -32.239  0.00  0.00    -0.059 A 
ATOM     19  C   UNL A   1      40.492 -34.707 -31.824  0.00  0.00    -0.026 A 
ATOM     20  C   UNL A   1      40.964 -35.640 -30.914  0.00  0.00    +0.124 A 
ATOM     21  F   UNL A   1      42.240 -35.591 -30.513  0.00  0.00    -0.205 F 
ATOM     22  C   UNL A   1      40.131 -36.632 -30.401  0.00  0.00    -0.022 A 
ENDBRANCH  15  16
ENDBRANCH   4  15
TORSDOF 4
ENDMDL
MODEL 4
REMARK VINA RESULT:    -6.844     16.762     17.967
REMARK INTER + INTRA:          -8.627
REMARK INTER:                  -7.792
REMARK INTRA:                  -0.835
REMARK UNBOUND:                -0.182
REMARK  Name = cpd349.pdb
REMARK  4 active torsions:
REMARK  status: ('A' for Active; 'I' for Inactive)
REMARK    1  A    between atoms: N_7  and  C_8
REMARK    2  A    between atoms: C_8  and  C_9
REMARK    3  A    between atoms: N_12  and  C_13
REMARK    4  A    between atoms: C_13  and  C_14
REMARK                            x       y       z     vdW  Elec       q    Type
REMARK                         _______ _______ _______ _____ _____    ______ ____
ROOT
ATOM      1  C   UNL A   1      41.345 -20.468 -38.897  0.00  0.00    -0.027 A 
ATOM      2  C   UNL A   1      42.164 -19.339 -38.823  0.00  0.00    -0.041 A 
ATOM      3  C   UNL A   1      43.251 -19.216 -39.682  0.00  0.00    +0.005 A 
ATOM      4  N   UNL A   1      43.523 -20.177 -40.595  0.00  0.00    -0.349 N 
ATOM      5  C   UNL A   1      42.740 -21.279 -40.688  0.00  0.00    +0.005 A 
ATOM      6  C   UNL A   1      41.640 -21.441 -39.853  0.00  0.00    -0.041 A 
ENDROOT
BRANCH   1   7
ATOM      7  C   UNL A   1      40.136 -20.608 -37.996  0.00  0.00    +0.047 C 
BRANCH   7  14
ATOM      8  O   UNL A   1      40.757 -23.105 -36.689  0.00  0.00    -0.275 OA
ATOM      9  C   UNL A   1      40.809 -22.039 -36.094  0.00  0.00    +0.223 C 
ATOM     10  C   UNL A   1      41.155 -21.881 -34.643  0.00  0.00    +0.033 C 
ATOM     11  C   UNL A   1      40.965 -20.398 -34.368  0.00  0.00    +0.033 C 
ATOM     12  C   UNL A   1      40.492 -19.834 -35.674  0.00  0.00    +0.223 C 
ATOM     13  O   UNL A   1      40.111 -18.685 -35.843  0.00  0.00    -0.275 OA
ATOM     14  N   UNL A   1      40.516 -20.816 -36.616  0.00  0.00    -0.238 N 
ENDBRANCH   7  14
ENDBRANCH   1   7
BRANCH   4  15
ATOM     15  C   UNL A   1      44.702 -20.038 -41.486  0.00  0.00    +0.048 C 
BRANCH  15  16
ATOM     16  C   UNL A   1      45.732 -21.105 -41.217  0.00  0.00    -0.025 A 
ATOM     17  C   UNL A   1      46.523 -21.050 -40.056  0.00  0.00    -0.057 A 
ATOM     18  C   UNL A   1      47.484 -22.032 -39.801  0.00  0.00    -0.059 A 
ATOM     19  C   UNL A   1      47.670 -23.078 -40.702  0.00  0.00    -0.026 A 
ATOM     20  C   UNL A   1      46.901 -23.128 -41.855  0.00  0.00    +0.124 A 
ATOM     21  F   UNL A   1      47.076 -24.128 -42.727  0.00  0.00    -0.205 F 
ATOM     22  C   UNL A   1      45.940 -22.156 -42.123  0.00  0.00    -0.022 A 
ENDBRANCH  15  16
ENDBRANCH   4  15
TORSDOF 4
ENDMDL
MODEL 5
REMARK VINA RESULT:    -6.722     25.349     28.718
REMARK INTER + INTRA:          -8.477
REMARK INTER:                  -7.993
REMARK INTRA:                  -0.483
REMARK UNBOUND:                -0.182
REMARK  Name = cpd349.pdb
REMARK  4 active torsions:
REMARK  status: ('A' for Active; 'I' for Inactive)
REMARK    1  A    between atoms: N_7  and  C_8
REMARK    2  A    between atoms: C_8  and  C_9
REMARK    3  A    between atoms: N_12  and  C_13
REMARK    4  A    between atoms: C_13  and  C_14
REMARK                            x       y       z     vdW  Elec       q    Type
REMARK                         _______ _______ _______ _____ _____    ______ ____
ROOT
ATOM      1  C   UNL A   1      54.644 -33.585 -52.643  0.00  0.00    -0.027 A 
ATOM      2  C   UNL A   1      54.164 -34.846 -52.287  0.00  0.00    -0.041 A 
ATOM      3  C   UNL A   1      54.729 -35.523 -51.210  0.00  0.00    +0.005 A 
ATOM      4  N   UNL A   1      55.738 -34.968 -50.499  0.00  0.00    -0.349 N 
ATOM      5  C   UNL A   1      56.217 -33.743 -50.824  0.00  0.00    +0.005 A 
ATOM      6  C   UNL A   1      55.679 -33.030 -51.889  0.00  0.00    -0.041 A 
ENDROOT
BRANCH   1   7
ATOM      7  C   UNL A   1      54.023 -32.815 -53.790  0.00  0.00    +0.047 C 
BRANCH   7  14
ATOM      8  O   UNL A   1      53.829 -29.959 -53.424  0.00  0.00    -0.275 OA
ATOM      9  C   UNL A   1      54.747 -30.464 -54.053  0.00  0.00    +0.223 C 
ATOM     10  C   UNL A   1      55.846 -29.702 -54.732  0.00  0.00    +0.033 C 
ATOM     11  C   UNL A   1      56.651 -30.765 -55.460  0.00  0.00    +0.033 C 
ATOM     12  C   UNL A   1      55.927 -32.045 -55.169  0.00  0.00    +0.223 C 
ATOM     13  O   UNL A   1      56.190 -33.128 -55.673  0.00  0.00    -0.275 OA
ATOM     14  N   UNL A   1      54.913 -31.794 -54.296  0.00  0.00    -0.238 N 
ENDBRANCH   7  14
ENDBRANCH   1   7
BRANCH   4  15
ATOM     15  C   UNL A   1      56.343 -35.716 -49.368  0.00  0.00    +0.048 C 
BRANCH  15  16
ATOM     16  C   UNL A   1      55.802 -35.251 -48.040  0.00  0.00    -0.025 A 
ATOM     17  C   UNL A   1      54.796 -35.986 -47.389  0.00  0.00    -0.057 A 
ATOM     18  C   UNL A   1      54.285 -35.560 -46.160  0.00  0.00    -0.059 A 
ATOM     19  C   UNL A   1      54.767 -34.394 -45.569  0.00  0.00    -0.026 A 
ATOM     20  C   UNL A   1      55.750 -33.659 -46.215  0.00  0.00    +0.124 A 
ATOM     21  F   UNL A   1      56.216 -32.537 -45.656  0.00  0.00    -0.205 F 
ATOM     22  C   UNL A   1      56.268 -34.071 -47.441  0.00  0.00    -0.022 A 
ENDBRANCH  15  16
ENDBRANCH   4  15
TORSDOF 4
ENDMDL
MODEL 6
REMARK VINA RESULT:    -6.715     15.784     16.999
REMARK INTER + INTRA:          -8.468
REMARK INTER:                  -7.743
REMARK INTRA:                  -0.724
REMARK UNBOUND:                -0.182
REMARK  Name = cpd349.pdb
REMARK  4 active torsions:
REMARK  status: ('A' for Active; 'I' for Inactive)
REMARK    1  A    between atoms: N_7  and  C_8
REMARK    2  A    between atoms: C_8  and  C_9
REMARK    3  A    between atoms: N_12  and  C_13
REMARK    4  A    between atoms: C_13  and  C_14
REMARK                            x       y       z     vdW  Elec       q    Type
REMARK                         _______ _______ _______ _____ _____    ______ ____
ROOT
ATOM      1  C   UNL A   1      41.311 -21.981 -36.888  0.00  0.00    -0.027 A 
ATOM      2  C   UNL A   1      41.025 -21.992 -38.254  0.00  0.00    -0.041 A 
ATOM      3  C   UNL A   1      41.843 -21.297 -39.138  0.00  0.00    +0.005 A 
ATOM      4  N   UNL A   1      42.921 -20.613 -38.688  0.00  0.00    -0.349 N 
ATOM      5  C   UNL A   1      43.222 -20.592 -37.367  0.00  0.00    +0.005 A 
ATOM      6  C   UNL A   1      42.433 -21.277 -36.450  0.00  0.00    -0.041 A 
ENDROOT
BRANCH   1   7
ATOM      7  C   UNL A   1      40.454 -22.758 -35.910  0.00  0.00    +0.047 C 
BRANCH   7  14
ATOM      8  O   UNL A   1      41.158 -23.117 -33.135  0.00  0.00    -0.275 OA
ATOM      9  C   UNL A   1      40.457 -22.187 -33.503  0.00  0.00    +0.223 C 
ATOM     10  C   UNL A   1      39.853 -21.155 -32.598  0.00  0.00    +0.033 C 
ATOM     11  C   UNL A   1      38.989 -20.305 -33.515  0.00  0.00    +0.033 C 
ATOM     12  C   UNL A   1      39.139 -20.942 -34.865  0.00  0.00    +0.223 C 
ATOM     13  O   UNL A   1      38.506 -20.626 -35.862  0.00  0.00    -0.275 OA
ATOM     14  N   UNL A   1      40.055 -21.945 -34.782  0.00  0.00    -0.238 N 
ENDBRANCH   7  14
ENDBRANCH   1   7
BRANCH   4  15
ATOM     15  C   UNL A   1      43.770 -19.858 -39.645  0.00  0.00    +0.048 C 
BRANCH  15  16
ATOM     16  C   UNL A   1      44.512 -20.780 -40.578  0.00  0.00    -0.025 A 
ATOM     17  C   UNL A   1      44.180 -20.824 -41.943  0.00  0.00    -0.057 A 
ATOM     18  C   UNL A   1      44.860 -21.680 -42.815  0.00  0.00    -0.059 A 
ATOM     19  C   UNL A   1      45.876 -22.504 -42.334  0.00  0.00    -0.026 A 
ATOM     20  C   UNL A   1      46.197 -22.472 -40.985  0.00  0.00    +0.124 A 
ATOM     21  F   UNL A   1      47.169 -23.262 -40.515  0.00  0.00    -0.205 F 
ATOM     22  C   UNL A   1      45.527 -21.625 -40.105  0.00  0.00    -0.022 A 
ENDBRANCH  15  16
ENDBRANCH   4  15
TORSDOF 4
ENDMDL
MODEL 7
REMARK VINA RESULT:    -6.660      2.827      3.944
REMARK INTER + INTRA:          -8.399
REMARK INTER:                  -7.554
REMARK INTRA:                  -0.845
REMARK UNBOUND:                -0.182
REMARK  Name = cpd349.pdb
REMARK  4 active torsions:
REMARK  status: ('A' for Active; 'I' for Inactive)
REMARK    1  A    between atoms: N_7  and  C_8
REMARK    2  A    between atoms: C_8  and  C_9
REMARK    3  A    between atoms: N_12  and  C_13
REMARK    4  A    between atoms: C_13  and  C_14
REMARK                            x       y       z     vdW  Elec       q    Type
REMARK                         _______ _______ _______ _____ _____    ______ ____
ROOT
ATOM      1  C   UNL A   1      35.160 -34.391 -29.674  0.00  0.00    -0.027 A 
ATOM      2  C   UNL A   1      34.988 -35.406 -28.731  0.00  0.00    -0.041 A 
ATOM      3  C   UNL A   1      35.831 -36.512 -28.744  0.00  0.00    +0.005 A 
ATOM      4  N   UNL A   1      36.823 -36.614 -29.659  0.00  0.00    -0.349 N 
ATOM      5  C   UNL A   1      37.011 -35.639 -30.582  0.00  0.00    +0.005 A 
ATOM      6  C   UNL A   1      36.195 -34.514 -30.601  0.00  0.00    -0.041 A 
ENDROOT
BRANCH   1   7
ATOM      7  C   UNL A   1      34.276 -33.161 -29.658  0.00  0.00    +0.047 C 
BRANCH   7  14
ATOM      8  O   UNL A   1      33.713 -32.788 -32.464  0.00  0.00    -0.275 OA
ATOM      9  C   UNL A   1      32.863 -33.201 -31.688  0.00  0.00    +0.223 C 
ATOM     10  C   UNL A   1      31.447 -33.527 -32.059  0.00  0.00    +0.033 C 
ATOM     11  C   UNL A   1      30.781 -33.877 -30.738  0.00  0.00    +0.033 C 
ATOM     12  C   UNL A   1      31.860 -33.688 -29.714  0.00  0.00    +0.223 C 
ATOM     13  O   UNL A   1      31.696 -33.754 -28.505  0.00  0.00    -0.275 OA
ATOM     14  N   UNL A   1      33.026 -33.389 -30.349  0.00  0.00    -0.238 N 
ENDBRANCH   7  14
ENDBRANCH   1   7
BRANCH   4  15
ATOM     15  C   UNL A   1      37.698 -37.814 -29.672  0.00  0.00    +0.048 C 
BRANCH  15  16
ATOM     16  C   UNL A   1      36.902 -39.081 -29.856  0.00  0.00    -0.025 A 
ATOM     17  C   UNL A   1      36.104 -39.257 -31.000  0.00  0.00    -0.057 A 
ATOM     18  C   UNL A   1      35.359 -40.426 -31.176  0.00  0.00    -0.059 A 
ATOM     19  C   UNL A   1      35.398 -41.431 -30.211  0.00  0.00    -0.026 A 
ATOM     20  C   UNL A   1      36.174 -41.255 -29.075  0.00  0.00    +0.124 A 
ATOM     21  F   UNL A   1      36.215 -42.214 -28.143  0.00  0.00    -0.205 F 
ATOM     22  C   UNL A   1      36.921 -40.094 -28.886  0.00  0.00    -0.022 A 
ENDBRANCH  15  16
ENDBRANCH   4  15
TORSDOF 4
ENDMDL
MODEL 8
REMARK VINA RESULT:    -6.569     16.333     17.490
REMARK INTER + INTRA:          -8.287
REMARK INTER:                  -7.729
REMARK INTRA:                  -0.558
REMARK UNBOUND:                -0.182
REMARK  Name = cpd349.pdb
REMARK  4 active torsions:
REMARK  status: ('A' for Active; 'I' for Inactive)
REMARK    1  A    between atoms: N_7  and  C_8
REMARK    2  A    between atoms: C_8  and  C_9
REMARK    3  A    between atoms: N_12  and  C_13
REMARK    4  A    between atoms: C_13  and  C_14
REMARK                            x       y       z     vdW  Elec       q    Type
REMARK                         _______ _______ _______ _____ _____    ______ ____
ROOT
ATOM      1  C   UNL A   1      41.342 -21.784 -38.403  0.00  0.00    -0.027 A 
ATOM      2  C   UNL A   1      41.340 -22.017 -39.780  0.00  0.00    -0.041 A 
ATOM      3  C   UNL A   1      42.379 -21.530 -40.566  0.00  0.00    +0.005 A 
ATOM      4  N   UNL A   1      43.399 -20.837 -40.009  0.00  0.00    -0.349 N 
ATOM      5  C   UNL A   1      43.425 -20.603 -38.674  0.00  0.00    +0.005 A 
ATOM      6  C   UNL A   1      42.409 -21.075 -37.851  0.00  0.00    -0.041 A 
ENDROOT
BRANCH   1   7
ATOM      7  C   UNL A   1      40.238 -22.333 -37.523  0.00  0.00    +0.047 C 
BRANCH   7  14
ATOM      8  O   UNL A   1      38.776 -19.886 -37.970  0.00  0.00    -0.275 OA
ATOM      9  C   UNL A   1      39.100 -20.243 -36.847  0.00  0.00    +0.223 C 
ATOM     10  C   UNL A   1      38.828 -19.475 -35.588  0.00  0.00    +0.033 C 
ATOM     11  C   UNL A   1      39.526 -20.273 -34.499  0.00  0.00    +0.033 C 
ATOM     12  C   UNL A   1      40.171 -21.414 -35.227  0.00  0.00    +0.223 C 
ATOM     13  O   UNL A   1      40.932 -22.226 -34.722  0.00  0.00    -0.275 OA
ATOM     14  N   UNL A   1      39.806 -21.367 -36.538  0.00  0.00    -0.238 N 
ENDBRANCH   7  14
ENDBRANCH   1   7
BRANCH   4  15
ATOM     15  C   UNL A   1      44.488 -20.305 -40.867  0.00  0.00    +0.048 C 
BRANCH  15  16
ATOM     16  C   UNL A   1      45.519 -21.360 -41.174  0.00  0.00    -0.025 A 
ATOM     17  C   UNL A   1      45.493 -22.039 -42.405  0.00  0.00    -0.057 A 
ATOM     18  C   UNL A   1      46.443 -23.022 -42.697  0.00  0.00    -0.059 A 
ATOM     19  C   UNL A   1      47.427 -23.342 -41.763  0.00  0.00    -0.026 A 
ATOM     20  C   UNL A   1      47.447 -22.683 -40.543  0.00  0.00    +0.124 A 
ATOM     21  F   UNL A   1      48.386 -22.987 -39.640  0.00  0.00    -0.205 F 
ATOM     22  C   UNL A   1      46.506 -21.702 -40.238  0.00  0.00    -0.022 A 
ENDBRANCH  15  16
ENDBRANCH   4  15
TORSDOF 4
ENDMDL
MODEL 9
REMARK VINA RESULT:    -6.540     18.314     19.669
REMARK INTER + INTRA:          -8.252
REMARK INTER:                  -7.470
REMARK INTRA:                  -0.782
REMARK UNBOUND:                -0.182
REMARK  Name = cpd349.pdb
REMARK  4 active torsions:
REMARK  status: ('A' for Active; 'I' for Inactive)
REMARK    1  A    between atoms: N_7  and  C_8
REMARK    2  A    between atoms: C_8  and  C_9
REMARK    3  A    between atoms: N_12  and  C_13
REMARK    4  A    between atoms: C_13  and  C_14
REMARK                            x       y       z     vdW  Elec       q    Type
REMARK                         _______ _______ _______ _____ _____    ______ ____
ROOT
ATOM      1  C   UNL A   1      45.260 -19.767 -36.222  0.00  0.00    -0.027 A 
ATOM      2  C   UNL A   1      44.310 -19.994 -37.219  0.00  0.00    -0.041 A 
ATOM      3  C   UNL A   1      44.655 -19.824 -38.556  0.00  0.00    +0.005 A 
ATOM      4  N   UNL A   1      45.907 -19.446 -38.902  0.00  0.00    -0.349 N 
ATOM      5  C   UNL A   1      46.848 -19.225 -37.952  0.00  0.00    +0.005 A 
ATOM      6  C   UNL A   1      46.547 -19.387 -36.605  0.00  0.00    -0.041 A 
ENDROOT
BRANCH   1   7
ATOM      7  C   UNL A   1      44.917 -19.978 -34.762  0.00  0.00    +0.047 C 
BRANCH   7  14
ATOM      8  O   UNL A   1      46.417 -17.913 -33.415  0.00  0.00    -0.275 OA
ATOM      9  C   UNL A   1      45.205 -17.841 -33.550  0.00  0.00    +0.223 C 
ATOM     10  C   UNL A   1      44.346 -16.729 -33.024  0.00  0.00    +0.033 C 
ATOM     11  C   UNL A   1      42.926 -17.163 -33.344  0.00  0.00    +0.033 C 
ATOM     12  C   UNL A   1      43.083 -18.505 -33.996  0.00  0.00    +0.223 C 
ATOM     13  O   UNL A   1      42.162 -19.248 -34.299  0.00  0.00    -0.275 OA
ATOM     14  N   UNL A   1      44.410 -18.770 -34.149  0.00  0.00    -0.238 N 
ENDBRANCH   7  14
ENDBRANCH   1   7
BRANCH   4  15
ATOM     15  C   UNL A   1      46.250 -19.247 -40.333  0.00  0.00    +0.048 C 
BRANCH  15  16
ATOM     16  C   UNL A   1      46.330 -20.558 -41.073  0.00  0.00    -0.025 A 
ATOM     17  C   UNL A   1      45.360 -20.889 -42.036  0.00  0.00    -0.057 A 
ATOM     18  C   UNL A   1      45.423 -22.104 -42.723  0.00  0.00    -0.059 A 
ATOM     19  C   UNL A   1      46.453 -23.005 -42.456  0.00  0.00    -0.026 A 
ATOM     20  C   UNL A   1      47.404 -22.687 -41.498  0.00  0.00    +0.124 A 
ATOM     21  F   UNL A   1      48.394 -23.548 -41.234  0.00  0.00    -0.205 F 
ATOM     22  C   UNL A   1      47.353 -21.480 -40.805  0.00  0.00    -0.022 A 
ENDBRANCH  15  16
ENDBRANCH   4  15
TORSDOF 4
ENDMDL
MODEL 10
REMARK VINA RESULT:    -6.531     15.645     16.811
REMARK INTER + INTRA:          -8.241
REMARK INTER:                  -7.574
REMARK INTRA:                  -0.667
REMARK UNBOUND:                -0.182
REMARK  Name = cpd349.pdb
REMARK  4 active torsions:
REMARK  status: ('A' for Active; 'I' for Inactive)
REMARK    1  A    between atoms: N_7  and  C_8
REMARK    2  A    between atoms: C_8  and  C_9
REMARK    3  A    between atoms: N_12  and  C_13
REMARK    4  A    between atoms: C_13  and  C_14
REMARK                            x       y       z     vdW  Elec       q    Type
REMARK                         _______ _______ _______ _____ _____    ______ ____
ROOT
ATOM      1  C   UNL A   1      41.278 -22.017 -36.641  0.00  0.00    -0.027 A 
ATOM      2  C   UNL A   1      42.323 -21.273 -36.093  0.00  0.00    -0.041 A 
ATOM      3  C   UNL A   1      43.205 -20.596 -36.930  0.00  0.00    +0.005 A 
ATOM      4  N   UNL A   1      43.057 -20.647 -38.274  0.00  0.00    -0.349 N 
ATOM      5  C   UNL A   1      42.046 -21.360 -38.829  0.00  0.00    +0.005 A 
ATOM      6  C   UNL A   1      41.140 -22.047 -38.030  0.00  0.00    -0.041 A 
ENDROOT
BRANCH   1   7
ATOM      7  C   UNL A   1      40.286 -22.734 -35.749  0.00  0.00    +0.047 C 
BRANCH   7  14
ATOM      8  O   UNL A   1      40.575 -22.966 -32.887  0.00  0.00    -0.275 OA
ATOM      9  C   UNL A   1      39.957 -22.043 -33.397  0.00  0.00    +0.223 C 
ATOM     10  C   UNL A   1      39.253 -20.957 -32.639  0.00  0.00    +0.033 C 
ATOM     11  C   UNL A   1      38.551 -20.140 -33.711  0.00  0.00    +0.033 C 
ATOM     12  C   UNL A   1      38.879 -20.846 -34.993  0.00  0.00    +0.223 C 
ATOM     13  O   UNL A   1      38.404 -20.570 -36.085  0.00  0.00    -0.275 OA
ATOM     14  N   UNL A   1      39.749 -21.860 -34.731  0.00  0.00    -0.238 N 
ENDBRANCH   7  14
ENDBRANCH   1   7
BRANCH   4  15
ATOM     15  C   UNL A   1      44.021 -19.938 -39.152  0.00  0.00    +0.048 C 
BRANCH  15  16
ATOM     16  C   UNL A   1      44.957 -20.898 -39.841  0.00  0.00    -0.025 A 
ATOM     17  C   UNL A   1      46.080 -21.403 -39.161  0.00  0.00    -0.057 A 
ATOM     18  C   UNL A   1      46.956 -22.290 -39.793  0.00  0.00    -0.059 A 
ATOM     19  C   UNL A   1      46.726 -22.679 -41.112  0.00  0.00    -0.026 A 
ATOM     20  C   UNL A   1      45.627 -22.171 -41.789  0.00  0.00    +0.124 A 
ATOM     21  F   UNL A   1      45.401 -22.537 -43.056  0.00  0.00    -0.205 F 
ATOM     22  C   UNL A   1      44.746 -21.286 -41.172  0.00  0.00    -0.022 A 
ENDBRANCH  15  16
ENDBRANCH   4  15
TORSDOF 4
ENDMDL
MODEL 11
REMARK VINA RESULT:    -6.525      1.887      2.591
REMARK INTER + INTRA:          -8.233
REMARK INTER:                  -7.616
REMARK INTRA:                  -0.617
REMARK UNBOUND:                -0.182
REMARK  Name = cpd349.pdb
REMARK  4 active torsions:
REMARK  status: ('A' for Active; 'I' for Inactive)
REMARK    1  A    between atoms: N_7  and  C_8
REMARK    2  A    between atoms: C_8  and  C_9
REMARK    3  A    between atoms: N_12  and  C_13
REMARK    4  A    between atoms: C_13  and  C_14
REMARK                            x       y       z     vdW  Elec       q    Type
REMARK                         _______ _______ _______ _____ _____    ______ ____
ROOT
ATOM      1  C   UNL A   1      32.851 -33.554 -29.666  0.00  0.00    -0.027 A 
ATOM      2  C   UNL A   1      34.171 -33.099 -29.680  0.00  0.00    -0.041 A 
ATOM      3  C   UNL A   1      35.142 -33.814 -30.374  0.00  0.00    +0.005 A 
ATOM      4  N   UNL A   1      34.819 -34.945 -31.044  0.00  0.00    -0.349 N 
ATOM      5  C   UNL A   1      33.544 -35.403 -31.048  0.00  0.00    +0.005 A 
ATOM      6  C   UNL A   1      32.542 -34.717 -30.371  0.00  0.00    -0.041 A 
ENDROOT
BRANCH   1   7
ATOM      7  C   UNL A   1      31.771 -32.775 -28.945  0.00  0.00    +0.047 C 
BRANCH   7  14
ATOM      8  O   UNL A   1      31.971 -30.299 -30.414  0.00  0.00    -0.275 OA
ATOM      9  C   UNL A   1      31.004 -31.037 -30.530  0.00  0.00    +0.223 C 
ATOM     10  C   UNL A   1      29.808 -30.759 -31.391  0.00  0.00    +0.033 C 
ATOM     11  C   UNL A   1      28.854 -31.904 -31.097  0.00  0.00    +0.033 C 
ATOM     12  C   UNL A   1      29.565 -32.726 -30.064  0.00  0.00    +0.223 C 
ATOM     13  O   UNL A   1      29.080 -33.679 -29.472  0.00  0.00    -0.275 OA
ATOM     14  N   UNL A   1      30.809 -32.211 -29.866  0.00  0.00    -0.238 N 
ENDBRANCH   7  14
ENDBRANCH   1   7
BRANCH   4  15
ATOM     15  C   UNL A   1      35.874 -35.707 -31.760  0.00  0.00    +0.048 C 
BRANCH  15  16
ATOM     16  C   UNL A   1      36.862 -36.323 -30.803  0.00  0.00    -0.025 A 
ATOM     17  C   UNL A   1      36.431 -36.816 -29.558  0.00  0.00    -0.057 A 
ATOM     18  C   UNL A   1      37.341 -37.385 -28.663  0.00  0.00    -0.059 A 
ATOM     19  C   UNL A   1      38.692 -37.464 -28.996  0.00  0.00    -0.026 A 
ATOM     20  C   UNL A   1      39.122 -36.967 -30.217  0.00  0.00    +0.124 A 
ATOM     21  F   UNL A   1      40.418 -37.036 -30.543  0.00  0.00    -0.205 F 
ATOM     22  C   UNL A   1      38.227 -36.396 -31.119  0.00  0.00    -0.022 A 
ENDBRANCH  15  16
ENDBRANCH   4  15
TORSDOF 4
ENDMDL
MODEL 12
REMARK VINA RESULT:    -6.523      2.820      4.008
REMARK INTER + INTRA:          -8.231
REMARK INTER:                  -7.757
REMARK INTRA:                  -0.474
REMARK UNBOUND:                -0.182
REMARK  Name = cpd349.pdb
REMARK  4 active torsions:
REMARK  status: ('A' for Active; 'I' for Inactive)
REMARK    1  A    between atoms: N_7  and  C_8
REMARK    2  A    between atoms: C_8  and  C_9
REMARK    3  A    between atoms: N_12  and  C_13
REMARK    4  A    between atoms: C_13  and  C_14
REMARK                            x       y       z     vdW  Elec       q    Type
REMARK                         _______ _______ _______ _____ _____    ______ ____
ROOT
ATOM      1  C   UNL A   1      32.485 -33.227 -31.433  0.00  0.00    -0.027 A 
ATOM      2  C   UNL A   1      33.556 -32.442 -31.004  0.00  0.00    -0.041 A 
ATOM      3  C   UNL A   1      34.835 -32.988 -30.946  0.00  0.00    +0.005 A 
ATOM      4  N   UNL A   1      35.053 -34.273 -31.306  0.00  0.00    -0.349 N 
ATOM      5  C   UNL A   1      34.029 -35.054 -31.730  0.00  0.00    +0.005 A 
ATOM      6  C   UNL A   1      32.737 -34.547 -31.808  0.00  0.00    -0.041 A 
ENDROOT
BRANCH   1   7
ATOM      7  C   UNL A   1      31.090 -32.645 -31.537  0.00  0.00    +0.047 C 
BRANCH   7  14
ATOM      8  O   UNL A   1      29.922 -33.881 -29.205  0.00  0.00    -0.275 OA
ATOM      9  C   UNL A   1      30.154 -32.682 -29.248  0.00  0.00    +0.223 C 
ATOM     10  C   UNL A   1      29.843 -31.707 -28.151  0.00  0.00    +0.033 C 
ATOM     11  C   UNL A   1      30.208 -30.352 -28.734  0.00  0.00    +0.033 C 
ATOM     12  C   UNL A   1      30.663 -30.656 -30.130  0.00  0.00    +0.223 C 
ATOM     13  O   UNL A   1      30.932 -29.817 -30.977  0.00  0.00    -0.275 OA
ATOM     14  N   UNL A   1      30.682 -32.006 -30.306  0.00  0.00    -0.238 N 
ENDBRANCH   7  14
ENDBRANCH   1   7
BRANCH   4  15
ATOM     15  C   UNL A   1      36.420 -34.845 -31.215  0.00  0.00    +0.048 C 
BRANCH  15  16
ATOM     16  C   UNL A   1      36.541 -35.817 -30.069  0.00  0.00    -0.025 A 
ATOM     17  C   UNL A   1      37.659 -36.666 -29.975  0.00  0.00    -0.057 A 
ATOM     18  C   UNL A   1      37.777 -37.574 -28.919  0.00  0.00    -0.059 A 
ATOM     19  C   UNL A   1      36.781 -37.650 -27.948  0.00  0.00    -0.026 A 
ATOM     20  C   UNL A   1      35.671 -36.823 -28.045  0.00  0.00    +0.124 A 
ATOM     21  F   UNL A   1      34.709 -36.892 -27.118  0.00  0.00    -0.205 F 
ATOM     22  C   UNL A   1      35.539 -35.914 -29.092  0.00  0.00    -0.022 A 
ENDBRANCH  15  16
ENDBRANCH   4  15
TORSDOF 4
ENDMDL
MODEL 13
REMARK VINA RESULT:    -6.384     18.557     20.284
REMARK INTER + INTRA:          -8.060
REMARK INTER:                  -7.399
REMARK INTRA:                  -0.661
REMARK UNBOUND:                -0.182
REMARK  Name = cpd349.pdb
REMARK  4 active torsions:
REMARK  status: ('A' for Active; 'I' for Inactive)
REMARK    1  A    between atoms: N_7  and  C_8
REMARK    2  A    between atoms: C_8  and  C_9
REMARK    3  A    between atoms: N_12  and  C_13
REMARK    4  A    between atoms: C_13  and  C_14
REMARK                            x       y       z     vdW  Elec       q    Type
REMARK                         _______ _______ _______ _____ _____    ______ ____
ROOT
ATOM      1  C   UNL A   1      46.124 -19.490 -39.161  0.00  0.00    -0.027 A 
ATOM      2  C   UNL A   1      47.199 -19.214 -38.316  0.00  0.00    -0.041 A 
ATOM      3  C   UNL A   1      47.093 -19.477 -36.953  0.00  0.00    +0.005 A 
ATOM      4  N   UNL A   1      45.958 -20.003 -36.438  0.00  0.00    -0.349 N 
ATOM      5  C   UNL A   1      44.902 -20.283 -37.240  0.00  0.00    +0.005 A 
ATOM      6  C   UNL A   1      44.967 -20.041 -38.608  0.00  0.00    -0.041 A 
ENDROOT
BRANCH   1   7
ATOM      7  C   UNL A   1      46.227 -19.244 -40.652  0.00  0.00    +0.047 C 
BRANCH   7  14
ATOM      8  O   UNL A   1      47.871 -21.609 -40.836  0.00  0.00    -0.275 OA
ATOM      9  C   UNL A   1      46.802 -21.523 -41.422  0.00  0.00    +0.223 C 
ATOM     10  C   UNL A   1      46.227 -22.579 -42.318  0.00  0.00    +0.033 C 
ATOM     11  C   UNL A   1      44.966 -21.949 -42.885  0.00  0.00    +0.033 C 
ATOM     12  C   UNL A   1      44.940 -20.570 -42.296  0.00  0.00    +0.223 C 
ATOM     13  O   UNL A   1      44.142 -19.695 -42.598  0.00  0.00    -0.275 OA
ATOM     14  N   UNL A   1      45.969 -20.446 -41.414  0.00  0.00    -0.238 N 
ENDBRANCH   7  14
ENDBRANCH   1   7
BRANCH   4  15
ATOM     15  C   UNL A   1      45.856 -20.254 -34.978  0.00  0.00    +0.048 C 
BRANCH  15  16
ATOM     16  C   UNL A   1      44.995 -19.222 -34.295  0.00  0.00    -0.025 A 
ATOM     17  C   UNL A   1      45.378 -17.869 -34.291  0.00  0.00    -0.057 A 
ATOM     18  C   UNL A   1      44.588 -16.907 -33.655  0.00  0.00    -0.059 A 
ATOM     19  C   UNL A   1      43.410 -17.283 -33.013  0.00  0.00    -0.026 A 
ATOM     20  C   UNL A   1      43.036 -18.619 -33.004  0.00  0.00    +0.124 A 
ATOM     21  F   UNL A   1      41.908 -18.988 -32.387  0.00  0.00    -0.205 F 
ATOM     22  C   UNL A   1      43.814 -19.589 -33.632  0.00  0.00    -0.022 A 
ENDBRANCH  15  16
ENDBRANCH   4  15
TORSDOF 4
ENDMDL
MODEL 14
REMARK VINA RESULT:    -6.368     16.223     18.014
REMARK INTER + INTRA:          -8.039
REMARK INTER:                  -7.290
REMARK INTRA:                  -0.750
REMARK UNBOUND:                -0.182
REMARK  Name = cpd349.pdb
REMARK  4 active torsions:
REMARK  status: ('A' for Active; 'I' for Inactive)
REMARK    1  A    between atoms: N_7  and  C_8
REMARK    2  A    between atoms: C_8  and  C_9
REMARK    3  A    between atoms: N_12  and  C_13
REMARK    4  A    between atoms: C_13  and  C_14
REMARK                            x       y       z     vdW  Elec       q    Type
REMARK                         _______ _______ _______ _____ _____    ______ ____
ROOT
ATOM      1  C   UNL A   1      43.382 -20.891 -38.564  0.00  0.00    -0.027 A 
ATOM      2  C   UNL A   1      42.549 -21.918 -39.011  0.00  0.00    -0.041 A 
ATOM      3  C   UNL A   1      41.283 -22.074 -38.455  0.00  0.00    +0.005 A 
ATOM      4  N   UNL A   1      40.846 -21.236 -37.487  0.00  0.00    -0.349 N 
ATOM      5  C   UNL A   1      41.635 -20.229 -37.040  0.00  0.00    +0.005 A 
ATOM      6  C   UNL A   1      42.905 -20.034 -37.571  0.00  0.00    -0.041 A 
ENDROOT
BRANCH   1   7
ATOM      7  C   UNL A   1      44.751 -20.680 -39.177  0.00  0.00    +0.047 C 
BRANCH   7  14
ATOM      8  O   UNL A   1      45.756 -22.669 -41.011  0.00  0.00    -0.275 OA
ATOM      9  C   UNL A   1      45.184 -21.663 -41.405  0.00  0.00    +0.223 C 
ATOM     10  C   UNL A   1      44.961 -21.310 -42.846  0.00  0.00    +0.033 C 
ATOM     11  C   UNL A   1      44.325 -19.931 -42.804  0.00  0.00    +0.033 C 
ATOM     12  C   UNL A   1      44.268 -19.590 -41.344  0.00  0.00    +0.223 C 
ATOM     13  O   UNL A   1      43.929 -18.507 -40.891  0.00  0.00    -0.275 OA
ATOM     14  N   UNL A   1      44.695 -20.662 -40.622  0.00  0.00    -0.238 N 
ENDBRANCH   7  14
ENDBRANCH   1   7
BRANCH   4  15
ATOM     15  C   UNL A   1      39.501 -21.433 -36.890  0.00  0.00    +0.048 C 
BRANCH  15  16
ATOM     16  C   UNL A   1      39.581 -21.662 -35.402  0.00  0.00    -0.025 A 
ATOM     17  C   UNL A   1      38.993 -20.746 -34.512  0.00  0.00    -0.057 A 
ATOM     18  C   UNL A   1      39.066 -20.947 -33.130  0.00  0.00    -0.059 A 
ATOM     19  C   UNL A   1      39.731 -22.061 -32.621  0.00  0.00    -0.026 A 
ATOM     20  C   UNL A   1      40.324 -22.959 -33.496  0.00  0.00    +0.124 A 
ATOM     21  F   UNL A   1      40.967 -24.029 -33.014  0.00  0.00    -0.205 F 
ATOM     22  C   UNL A   1      40.260 -22.771 -34.875  0.00  0.00    -0.022 A 
ENDBRANCH  15  16
ENDBRANCH   4  15
TORSDOF 4
ENDMDL
MODEL 15
REMARK VINA RESULT:    -6.326     16.246     17.445
REMARK INTER + INTRA:          -7.988
REMARK INTER:                  -7.419
REMARK INTRA:                  -0.568
REMARK UNBOUND:                -0.182
REMARK  Name = cpd349.pdb
REMARK  4 active torsions:
REMARK  status: ('A' for Active; 'I' for Inactive)
REMARK    1  A    between atoms: N_7  and  C_8
REMARK    2  A    between atoms: C_8  and  C_9
REMARK    3  A    between atoms: N_12  and  C_13
REMARK    4  A    between atoms: C_13  and  C_14
REMARK                            x       y       z     vdW  Elec       q    Type
REMARK                         _______ _______ _______ _____ _____    ______ ____
ROOT
ATOM      1  C   UNL A   1      40.671 -20.779 -37.408  0.00  0.00    -0.027 A 
ATOM      2  C   UNL A   1      41.874 -21.348 -36.987  0.00  0.00    -0.041 A 
ATOM      3  C   UNL A   1      43.078 -20.886 -37.508  0.00  0.00    +0.005 A 
ATOM      4  N   UNL A   1      43.097 -19.884 -38.417  0.00  0.00    -0.349 N 
ATOM      5  C   UNL A   1      41.942 -19.313 -38.838  0.00  0.00    +0.005 A 
ATOM      6  C   UNL A   1      40.717 -19.741 -38.339  0.00  0.00    -0.041 A 
ENDROOT
BRANCH   1   7
ATOM      7  C   UNL A   1      39.350 -21.243 -36.830  0.00  0.00    +0.047 C 
BRANCH   7  14
ATOM      8  O   UNL A   1      39.160 -23.979 -35.931  0.00  0.00    -0.275 OA
ATOM      9  C   UNL A   1      39.410 -23.065 -35.159  0.00  0.00    +0.223 C 
ATOM     10  C   UNL A   1      39.612 -23.221 -33.681  0.00  0.00    +0.033 C 
ATOM     11  C   UNL A   1      39.774 -21.800 -33.169  0.00  0.00    +0.033 C 
ATOM     12  C   UNL A   1      39.616 -20.943 -34.389  0.00  0.00    +0.223 C 
ATOM     13  O   UNL A   1      39.561 -19.722 -34.385  0.00  0.00    -0.275 OA
ATOM     14  N   UNL A   1      39.500 -21.745 -35.483  0.00  0.00    -0.238 N 
ENDBRANCH   7  14
ENDBRANCH   1   7
BRANCH   4  15
ATOM     15  C   UNL A   1      44.391 -19.420 -38.979  0.00  0.00    +0.048 C 
BRANCH  15  16
ATOM     16  C   UNL A   1      44.642 -19.998 -40.348  0.00  0.00    -0.025 A 
ATOM     17  C   UNL A   1      44.232 -19.300 -41.498  0.00  0.00    -0.057 A 
ATOM     18  C   UNL A   1      44.457 -19.831 -42.772  0.00  0.00    -0.059 A 
ATOM     19  C   UNL A   1      45.088 -21.065 -42.913  0.00  0.00    -0.026 A 
ATOM     20  C   UNL A   1      45.481 -21.762 -41.780  0.00  0.00    +0.124 A 
ATOM     21  F   UNL A   1      46.085 -22.949 -41.907  0.00  0.00    -0.205 F 
ATOM     22  C   UNL A   1      45.263 -21.246 -40.505  0.00  0.00    -0.022 A 
ENDBRANCH  15  16
ENDBRANCH   4  15
TORSDOF 4
ENDMDL
MODEL 16
REMARK VINA RESULT:    -6.298     16.924     18.894
REMARK INTER + INTRA:          -7.953
REMARK INTER:                  -7.163
REMARK INTRA:                  -0.790
REMARK UNBOUND:                -0.182
REMARK  Name = cpd349.pdb
REMARK  4 active torsions:
REMARK  status: ('A' for Active; 'I' for Inactive)
REMARK    1  A    between atoms: N_7  and  C_8
REMARK    2  A    between atoms: C_8  and  C_9
REMARK    3  A    between atoms: N_12  and  C_13
REMARK    4  A    between atoms: C_13  and  C_14
REMARK                            x       y       z     vdW  Elec       q    Type
REMARK                         _______ _______ _______ _____ _____    ______ ____
ROOT
ATOM      1  C   UNL A   1      43.457 -19.843 -40.343  0.00  0.00    -0.027 A 
ATOM      2  C   UNL A   1      42.641 -20.970 -40.447  0.00  0.00    -0.041 A 
ATOM      3  C   UNL A   1      41.452 -21.032 -39.728  0.00  0.00    +0.005 A 
ATOM      4  N   UNL A   1      41.073 -20.007 -38.931  0.00  0.00    -0.349 N 
ATOM      5  C   UNL A   1      41.847 -18.900 -38.817  0.00  0.00    +0.005 A 
ATOM      6  C   UNL A   1      43.041 -18.794 -39.522  0.00  0.00    -0.041 A 
ENDROOT
BRANCH   1   7
ATOM      7  C   UNL A   1      44.740 -19.738 -41.142  0.00  0.00    +0.047 C 
BRANCH   7  14
ATOM      8  O   UNL A   1      46.718 -19.972 -39.053  0.00  0.00    -0.275 OA
ATOM      9  C   UNL A   1      46.520 -20.874 -39.854  0.00  0.00    +0.223 C 
ATOM     10  C   UNL A   1      47.271 -22.172 -39.890  0.00  0.00    +0.033 C 
ATOM     11  C   UNL A   1      46.738 -22.885 -41.121  0.00  0.00    +0.033 C 
ATOM     12  C   UNL A   1      45.750 -21.923 -41.710  0.00  0.00    +0.223 C 
ATOM     13  O   UNL A   1      45.184 -22.071 -42.784  0.00  0.00    -0.275 OA
ATOM     14  N   UNL A   1      45.627 -20.850 -40.882  0.00  0.00    -0.238 N 
ENDBRANCH   7  14
ENDBRANCH   1   7
BRANCH   4  15
ATOM     15  C   UNL A   1      39.812 -20.102 -38.153  0.00  0.00    +0.048 C 
BRANCH  15  16
ATOM     16  C   UNL A   1      39.954 -21.028 -36.973  0.00  0.00    -0.025 A 
ATOM     17  C   UNL A   1      39.218 -22.226 -36.920  0.00  0.00    -0.057 A 
ATOM     18  C   UNL A   1      39.340 -23.089 -35.827  0.00  0.00    -0.059 A 
ATOM     19  C   UNL A   1      40.192 -22.765 -34.773  0.00  0.00    -0.026 A 
ATOM     20  C   UNL A   1      40.909 -21.578 -34.816  0.00  0.00    +0.124 A 
ATOM     21  F   UNL A   1      41.727 -21.259 -33.806  0.00  0.00    -0.205 F 
ATOM     22  C   UNL A   1      40.796 -20.708 -35.898  0.00  0.00    -0.022 A 
ENDBRANCH  15  16
ENDBRANCH   4  15
TORSDOF 4
ENDMDL
MODEL 17
REMARK VINA RESULT:    -6.296     15.948     17.963
REMARK INTER + INTRA:          -7.951
REMARK INTER:                  -7.338
REMARK INTRA:                  -0.612
REMARK UNBOUND:                -0.182
REMARK  Name = cpd349.pdb
REMARK  4 active torsions:
REMARK  status: ('A' for Active; 'I' for Inactive)
REMARK    1  A    between atoms: N_7  and  C_8
REMARK    2  A    between atoms: C_8  and  C_9
REMARK    3  A    between atoms: N_12  and  C_13
REMARK    4  A    between atoms: C_13  and  C_14
REMARK                            x       y       z     vdW  Elec       q    Type
REMARK                         _______ _______ _______ _____ _____    ______ ____
ROOT
ATOM      1  C   UNL A   1      42.977 -20.758 -38.890  0.00  0.00    -0.027 A 
ATOM      2  C   UNL A   1      41.800 -21.189 -39.505  0.00  0.00    -0.041 A 
ATOM      3  C   UNL A   1      40.803 -21.793 -38.745  0.00  0.00    +0.005 A 
ATOM      4  N   UNL A   1      40.959 -21.962 -37.411  0.00  0.00    -0.349 N 
ATOM      5  C   UNL A   1      42.092 -21.548 -36.792  0.00  0.00    +0.005 A 
ATOM      6  C   UNL A   1      43.111 -20.936 -37.513  0.00  0.00    -0.041 A 
ENDROOT
BRANCH   1   7
ATOM      7  C   UNL A   1      44.062 -20.069 -39.691  0.00  0.00    +0.047 C 
BRANCH   7  14
ATOM      8  O   UNL A   1      46.521 -20.249 -38.193  0.00  0.00    -0.275 OA
ATOM      9  C   UNL A   1      46.303 -20.968 -39.157  0.00  0.00    +0.223 C 
ATOM     10  C   UNL A   1      47.260 -21.985 -39.705  0.00  0.00    +0.033 C 
ATOM     11  C   UNL A   1      46.575 -22.515 -40.953  0.00  0.00    +0.033 C 
ATOM     12  C   UNL A   1      45.298 -21.733 -41.040  0.00  0.00    +0.223 C 
ATOM     13  O   UNL A   1      44.513 -21.777 -41.975  0.00  0.00    -0.275 OA
ATOM     14  N   UNL A   1      45.186 -20.943 -39.937  0.00  0.00    -0.238 N 
ENDBRANCH   7  14
ENDBRANCH   1   7
BRANCH   4  15
ATOM     15  C   UNL A   1      39.894 -22.630 -36.621  0.00  0.00    +0.048 C 
BRANCH  15  16
ATOM     16  C   UNL A   1      39.728 -21.995 -35.264  0.00  0.00    -0.025 A 
ATOM     17  C   UNL A   1      39.065 -20.762 -35.134  0.00  0.00    -0.057 A 
ATOM     18  C   UNL A   1      38.911 -20.164 -33.880  0.00  0.00    -0.059 A 
ATOM     19  C   UNL A   1      39.420 -20.787 -32.742  0.00  0.00    -0.026 A 
ATOM     20  C   UNL A   1      40.087 -21.997 -32.868  0.00  0.00    +0.124 A 
ATOM     21  F   UNL A   1      40.581 -22.599 -31.780  0.00  0.00    -0.205 F 
ATOM     22  C   UNL A   1      40.249 -22.603 -34.111  0.00  0.00    -0.022 A 
ENDBRANCH  15  16
ENDBRANCH   4  15
TORSDOF 4
ENDMDL
MODEL 18
REMARK VINA RESULT:    -6.229     16.492     17.726
REMARK INTER + INTRA:          -7.868
REMARK INTER:                  -7.337
REMARK INTRA:                  -0.530
REMARK UNBOUND:                -0.182
REMARK  Name = cpd349.pdb
REMARK  4 active torsions:
REMARK  status: ('A' for Active; 'I' for Inactive)
REMARK    1  A    between atoms: N_7  and  C_8
REMARK    2  A    between atoms: C_8  and  C_9
REMARK    3  A    between atoms: N_12  and  C_13
REMARK    4  A    between atoms: C_13  and  C_14
REMARK                            x       y       z     vdW  Elec       q    Type
REMARK                         _______ _______ _______ _____ _____    ______ ____
ROOT
ATOM      1  C   UNL A   1      41.088 -20.372 -37.169  0.00  0.00    -0.027 A 
ATOM      2  C   UNL A   1      41.234 -19.118 -37.766  0.00  0.00    -0.041 A 
ATOM      3  C   UNL A   1      42.421 -18.794 -38.415  0.00  0.00    +0.005 A 
ATOM      4  N   UNL A   1      43.437 -19.685 -38.480  0.00  0.00    -0.349 N 
ATOM      5  C   UNL A   1      43.317 -20.910 -37.912  0.00  0.00    +0.005 A 
ATOM      6  C   UNL A   1      42.147 -21.276 -37.257  0.00  0.00    -0.041 A 
ENDROOT
BRANCH   1   7
ATOM      7  C   UNL A   1      39.793 -20.759 -36.486  0.00  0.00    +0.047 C 
BRANCH   7  14
ATOM      8  O   UNL A   1      40.852 -19.653 -34.039  0.00  0.00    -0.275 OA
ATOM      9  C   UNL A   1      40.519 -20.826 -34.122  0.00  0.00    +0.223 C 
ATOM     10  C   UNL A   1      40.640 -21.834 -33.018  0.00  0.00    +0.033 C 
ATOM     11  C   UNL A   1      40.210 -23.146 -33.653  0.00  0.00    +0.033 C 
ATOM     12  C   UNL A   1      39.912 -22.790 -35.079  0.00  0.00    +0.223 C 
ATOM     13  O   UNL A   1      39.647 -23.594 -35.960  0.00  0.00    -0.275 OA
ATOM     14  N   UNL A   1      40.030 -21.443 -35.234  0.00  0.00    -0.238 N 
ENDBRANCH   7  14
ENDBRANCH   1   7
BRANCH   4  15
ATOM     15  C   UNL A   1      44.705 -19.313 -39.157  0.00  0.00    +0.048 C 
BRANCH  15  16
ATOM     16  C   UNL A   1      44.830 -19.974 -40.506  0.00  0.00    -0.025 A 
ATOM     17  C   UNL A   1      44.274 -19.368 -41.647  0.00  0.00    -0.057 A 
ATOM     18  C   UNL A   1      44.381 -19.976 -42.901  0.00  0.00    -0.059 A 
ATOM     19  C   UNL A   1      45.040 -21.197 -43.031  0.00  0.00    -0.026 A 
ATOM     20  C   UNL A   1      45.578 -21.804 -41.906  0.00  0.00    +0.124 A 
ATOM     21  F   UNL A   1      46.210 -22.978 -42.022  0.00  0.00    -0.205 F 
ATOM     22  C   UNL A   1      45.478 -21.210 -40.650  0.00  0.00    -0.022 A 
ENDBRANCH  15  16
ENDBRANCH   4  15
TORSDOF 4
ENDMDL
MODEL 19
REMARK VINA RESULT:    -6.171     24.879     28.002
REMARK INTER + INTRA:          -7.797
REMARK INTER:                  -7.016
REMARK INTRA:                  -0.781
REMARK UNBOUND:                -0.182
REMARK  Name = cpd349.pdb
REMARK  4 active torsions:
REMARK  status: ('A' for Active; 'I' for Inactive)
REMARK    1  A    between atoms: N_7  and  C_8
REMARK    2  A    between atoms: C_8  and  C_9
REMARK    3  A    between atoms: N_12  and  C_13
REMARK    4  A    between atoms: C_13  and  C_14
REMARK                            x       y       z     vdW  Elec       q    Type
REMARK                         _______ _______ _______ _____ _____    ______ ____
ROOT
ATOM      1  C   UNL A   1      54.291 -35.337 -52.521  0.00  0.00    -0.027 A 
ATOM      2  C   UNL A   1      55.653 -35.280 -52.222  0.00  0.00    -0.041 A 
ATOM      3  C   UNL A   1      56.115 -35.768 -51.004  0.00  0.00    +0.005 A 
ATOM      4  N   UNL A   1      55.258 -36.305 -50.105  0.00  0.00    -0.349 N 
ATOM      5  C   UNL A   1      53.931 -36.375 -50.375  0.00  0.00    +0.005 A 
ATOM      6  C   UNL A   1      53.427 -35.903 -51.582  0.00  0.00    -0.041 A 
ENDROOT
BRANCH   1   7
ATOM      7  C   UNL A   1      53.768 -34.843 -53.854  0.00  0.00    +0.047 C 
BRANCH   7  14
ATOM      8  O   UNL A   1      52.281 -32.579 -52.860  0.00  0.00    -0.275 OA
ATOM      9  C   UNL A   1      53.295 -32.437 -53.526  0.00  0.00    +0.223 C 
ATOM     10  C   UNL A   1      53.875 -31.117 -53.940  0.00  0.00    +0.033 C 
ATOM     11  C   UNL A   1      55.045 -31.482 -54.838  0.00  0.00    +0.033 C 
ATOM     12  C   UNL A   1      55.019 -32.980 -54.895  0.00  0.00    +0.223 C 
ATOM     13  O   UNL A   1      55.731 -33.666 -55.614  0.00  0.00    -0.275 OA
ATOM     14  N   UNL A   1      54.051 -33.440 -54.055  0.00  0.00    -0.238 N 
ENDBRANCH   7  14
ENDBRANCH   1   7
BRANCH   4  15
ATOM     15  C   UNL A   1      55.767 -36.799 -48.801  0.00  0.00    +0.048 C 
BRANCH  15  16
ATOM     16  C   UNL A   1      55.571 -35.782 -47.706  0.00  0.00    -0.025 A 
ATOM     17  C   UNL A   1      56.301 -34.581 -47.715  0.00  0.00    -0.057 A 
ATOM     18  C   UNL A   1      56.129 -33.635 -46.700  0.00  0.00    -0.059 A 
ATOM     19  C   UNL A   1      55.231 -33.878 -45.663  0.00  0.00    -0.026 A 
ATOM     20  C   UNL A   1      54.519 -35.068 -45.644  0.00  0.00    +0.124 A 
ATOM     21  F   UNL A   1      53.657 -35.310 -44.650  0.00  0.00    -0.205 F 
ATOM     22  C   UNL A   1      54.681 -36.020 -46.648  0.00  0.00    -0.022 A 
ENDBRANCH  15  16
ENDBRANCH   4  15
TORSDOF 4
ENDMDL
MODEL 20
REMARK VINA RESULT:    -6.011     17.270     18.472
REMARK INTER + INTRA:          -7.599
REMARK INTER:                  -6.780
REMARK INTRA:                  -0.819
REMARK UNBOUND:                -0.182
REMARK  Name = cpd349.pdb
REMARK  4 active torsions:
REMARK  status: ('A' for Active; 'I' for Inactive)
REMARK    1  A    between atoms: N_7  and  C_8
REMARK    2  A    between atoms: C_8  and  C_9
REMARK    3  A    between atoms: N_12  and  C_13
REMARK    4  A    between atoms: C_13  and  C_14
REMARK                            x       y       z     vdW  Elec       q    Type
REMARK                         _______ _______ _______ _____ _____    ______ ____
ROOT
ATOM      1  C   UNL A   1      42.648 -19.102 -37.841  0.00  0.00    -0.027 A 
ATOM      2  C   UNL A   1      43.652 -20.015 -37.514  0.00  0.00    -0.041 A 
ATOM      3  C   UNL A   1      44.815 -20.066 -38.276  0.00  0.00    +0.005 A 
ATOM      4  N   UNL A   1      44.987 -19.235 -39.330  0.00  0.00    -0.349 N 
ATOM      5  C   UNL A   1      44.028 -18.337 -39.663  0.00  0.00    +0.005 A 
ATOM      6  C   UNL A   1      42.852 -18.249 -38.926  0.00  0.00    -0.041 A 
ENDROOT
BRANCH   1   7
ATOM      7  C   UNL A   1      41.388 -19.004 -37.006  0.00  0.00    +0.047 C 
BRANCH   7  14
ATOM      8  O   UNL A   1      39.664 -20.302 -38.923  0.00  0.00    -0.275 OA
ATOM      9  C   UNL A   1      39.942 -20.824 -37.853  0.00  0.00    +0.223 C 
ATOM     10  C   UNL A   1      39.420 -22.149 -37.382  0.00  0.00    +0.033 C 
ATOM     11  C   UNL A   1      39.959 -22.287 -35.968  0.00  0.00    +0.033 C 
ATOM     12  C   UNL A   1      40.716 -21.014 -35.731  0.00  0.00    +0.223 C 
ATOM     13  O   UNL A   1      41.205 -20.680 -34.662  0.00  0.00    -0.275 OA
ATOM     14  N   UNL A   1      40.727 -20.284 -36.879  0.00  0.00    -0.238 N 
ENDBRANCH   7  14
ENDBRANCH   1   7
BRANCH   4  15
ATOM     15  C   UNL A   1      46.225 -19.321 -40.145  0.00  0.00    +0.048 C 
BRANCH  15  16
ATOM     16  C   UNL A   1      46.279 -20.599 -40.941  0.00  0.00    -0.025 A 
ATOM     17  C   UNL A   1      45.347 -20.836 -41.967  0.00  0.00    -0.057 A 
ATOM     18  C   UNL A   1      45.386 -22.020 -42.707  0.00  0.00    -0.059 A 
ATOM     19  C   UNL A   1      46.353 -22.985 -42.430  0.00  0.00    -0.026 A 
ATOM     20  C   UNL A   1      47.267 -22.761 -41.411  0.00  0.00    +0.124 A 
ATOM     21  F   UNL A   1      48.196 -23.683 -41.137  0.00  0.00    -0.205 F 
ATOM     22  C   UNL A   1      47.238 -21.585 -40.664  0.00  0.00    -0.022 A 
ENDBRANCH  15  16
ENDBRANCH   4  15
TORSDOF 4
ENDMDL
