@<TRIPOS>MOLECULE
*****
 22 24 0 0 0
SMALL
GASTEIGER

@<TRIPOS>ATOM
      1 O           0.0280   -1.2788    0.0000 O.2     1  UNL1       -0.2744
      2 C          -0.9230   -1.5878    0.0000 C.2     1  UNL1        0.2321
      3 C          -1.2321   -2.5388    0.0000 C.3     1  UNL1        0.0953
      4 C          -2.2321   -2.5388    0.0000 C.3     1  UNL1        0.0953
      5 C          -2.5411   -1.5878    0.0000 C.2     1  UNL1        0.2321
      6 O          -3.4921   -1.2788    0.0000 O.2     1  UNL1       -0.2744
      7 N          -1.7321   -1.0000    0.0000 N.am    1  UNL1       -0.2255
      8 C          -1.7321    0.0000    0.0000 C.3     1  UNL1        0.1278
      9 C          -0.8660    0.5000    0.0000 C.ar    1  UNL1        0.0103
     10 C          -0.8660    1.5000    0.0000 C.ar    1  UNL1        0.0732
     11 C           0.0000    2.0000    0.0000 C.ar    1  UNL1        0.2901
     12 N           0.8660    1.5000    0.0000 N.ar    1  UNL1       -0.1555
     13 C           1.7321    2.0000    0.0000 C.3     1  UNL1        0.3502
     14 C           2.5981    1.5000    0.0000 C.ar    1  UNL1        0.0577
     15 C           3.4641    2.0000    0.0000 C.ar    1  UNL1        0.0026
     16 C           4.3301    1.5000    0.0000 C.ar    1  UNL1        0.0022
     17 C           4.3301    0.5000    0.0000 C.ar    1  UNL1        0.0296
     18 C           3.4641   -0.0000    0.0000 C.ar    1  UNL1        0.1400
     19 F           3.4641   -1.0000    0.0000 F       1  UNL1       -0.2042
     20 C           2.5981    0.5000    0.0000 C.ar    1  UNL1        0.0321
     21 C           0.8660    0.5000    0.0000 C.ar    1  UNL1        0.2901
     22 C           0.0000   -0.0000    0.0000 C.ar    1  UNL1        0.0732
@<TRIPOS>UNITY_ATOM_ATTR
12 1
charge 1
@<TRIPOS>BOND
     1     1     2    2
     2     2     3    1
     3     3     4    1
     4     4     5    1
     5     5     6    2
     6     5     7   am
     7     2     7   am
     8     7     8    1
     9     8     9    1
    10     9    10   ar
    11    10    11   ar
    12    11    12   ar
    13    12    13    1
    14    13    14    1
    15    14    15   ar
    16    15    16   ar
    17    16    17   ar
    18    17    18   ar
    19    18    19    1
    20    18    20   ar
    21    14    20   ar
    22    12    21   ar
    23    21    22   ar
    24     9    22   ar
