REMARK  Name = cpd20.pdb
REMARK  16 active torsions:
REMARK  status: ('A' for Active; 'I' for Inactive)
REMARK    1  A    between atoms: C_1  and  C_2
REMARK    2  A    between atoms: C_6  and  N_7
REMARK    3  A    between atoms: N_7  and  C_8
REMARK    4  A    between atoms: C_13  and  C_14
REMARK    5  A    between atoms: N_16  and  C_17
REMARK    6  A    between atoms: C_17  and  C_18
REMARK    7  A    between atoms: C_18  and  C_19
REMARK    8  A    between atoms: C_19  and  C_20
REMARK    9  A    between atoms: C_20  and  C_21
REMARK   10  A    between atoms: C_21  and  C_22
REMARK   11  A    between atoms: C_22  and  C_23
REMARK   12  A    between atoms: C_23  and  C_24
REMARK   13  A    between atoms: C_24  and  C_25
REMARK   14  A    between atoms: C_25  and  N_26
REMARK   15  A    between atoms: N_26  and  C_27
REMARK   16  A    between atoms: C_42  and  C_43
REMARK                            x       y       z     vdW  Elec       q    Type
REMARK                         _______ _______ _______ _____ _____    ______ ____
ROOT
ATOM      1  C   UNL A   1       5.529   2.622   1.366  0.00  0.00    -0.052 C 
ENDROOT
BRANCH   1   2
ATOM      2  C   UNL A   1       4.219   3.365   1.097  0.00  0.00    -0.037 C 
BRANCH   2   3
ATOM      3  C   UNL A   1       3.936   3.604  -0.385  0.00  0.00    +0.012 C 
BRANCH   3   6
ATOM      4  C   UNL A   1       1.526   3.255  -0.780  0.00  0.00    +0.246 C 
ATOM      5  O   UNL A   1       1.660   2.039  -0.891  0.00  0.00    -0.270 OA
ATOM      6  N   UNL A   1       2.591   4.112  -0.579  0.00  0.00    -0.311 N 
ATOM      7  H   UNL A   1       2.434   5.084  -0.567  0.00  0.00    +0.000 HD
BRANCH   4  13
ATOM      8  C   UNL A   1      -0.964   3.097  -0.420  0.00  0.00    +0.044 A 
ATOM      9  C   UNL A   1      -2.214   3.738  -0.368  0.00  0.00    -0.040 A 
ATOM     10  C   UNL A   1      -2.367   5.067  -0.769  0.00  0.00    -0.060 A 
ATOM     11  C   UNL A   1      -1.267   5.790  -1.215  0.00  0.00    -0.061 A 
ATOM     12  C   UNL A   1      -0.005   5.195  -1.230  0.00  0.00    -0.048 A 
ATOM     13  C   UNL A   1       0.162   3.866  -0.802  0.00  0.00    +0.058 A 
BRANCH   8  14
ATOM     14  N   UNL A   1      -0.830   1.756   0.036  0.00  0.00    -0.314 N 
ATOM     15  H   UNL A   1       0.009   1.543   0.505  0.00  0.00    +0.000 HD
BRANCH  14  21
ATOM     16  C   UNL A   1      -2.495  -2.719   1.525  0.00  0.00    -0.039 C 
ATOM     17  C   UNL A   1      -2.529  -1.529   0.604  0.00  0.00    -0.046 A 
ATOM     18  C   UNL A   1      -3.418  -1.546  -0.481  0.00  0.00    -0.058 A 
ATOM     19  C   UNL A   1      -3.464  -0.483  -1.378  0.00  0.00    -0.060 A 
ATOM     20  C   UNL A   1      -2.625   0.613  -1.198  0.00  0.00    -0.040 A 
ATOM     21  C   UNL A   1      -1.756   0.684  -0.100  0.00  0.00    +0.035 A 
ATOM     22  C   UNL A   1      -1.701  -0.400   0.810  0.00  0.00    -0.026 A 
ATOM     23  C   UNL A   1      -0.718  -0.366   1.956  0.00  0.00    -0.038 C 
ENDBRANCH  14  21
ENDBRANCH   8  14
ENDBRANCH   4  13
ENDBRANCH   3   6
ENDBRANCH   2   3
ENDBRANCH   1   2
BRANCH   1  24
ATOM     24  C   UNL A   1       6.763   3.303   0.771  0.00  0.00    -0.053 C 
BRANCH  24  25
ATOM     25  C   UNL A   1       8.049   2.638   1.267  0.00  0.00    -0.053 C 
BRANCH  25  26
ATOM     26  C   UNL A   1       9.282   3.192   0.551  0.00  0.00    -0.053 C 
BRANCH  26  27
ATOM     27  C   UNL A   1      10.568   2.613   1.146  0.00  0.00    -0.052 C 
BRANCH  27  28
ATOM     28  C   UNL A   1      11.832   3.064   0.408  0.00  0.00    -0.037 C 
BRANCH  28  29
ATOM     29  C   UNL A   1      12.005   2.369  -0.945  0.00  0.00    +0.009 C 
BRANCH  29  30
ATOM     30  N   UNL A   1      13.238   2.785  -1.634  0.00  0.00    -0.343 N 
ATOM     31  H   UNL A   1      13.228   3.413  -2.392  0.00  0.00    +0.000 HD
BRANCH  30  32
ATOM     32  C   UNL A   1      14.442   2.222  -1.134  0.00  0.00    +0.041 A 
ATOM     33  C   UNL A   1      15.349   3.019  -0.399  0.00  0.00    -0.005 A 
ATOM     34  C   UNL A   1      16.478   2.392   0.137  0.00  0.00    +0.047 A 
ATOM     35  N   UNL A   1      16.718   1.066   0.019  0.00  0.00    -0.251 NA
ATOM     36  C   UNL A   1      15.876   0.313  -0.696  0.00  0.00    +0.074 A 
ATOM     37  C   UNL A   1      16.173  -1.035  -0.833  0.00  0.00    -0.017 A 
ATOM     38  C   UNL A   1      15.371  -1.880  -1.592  0.00  0.00    +0.043 A 
ATOM     39 CL   UNL A   1      15.776  -3.546  -1.739  0.00  0.00    -0.083 Cl
ATOM     40  C   UNL A   1      14.253  -1.384  -2.244  0.00  0.00    -0.043 A 
ATOM     41  C   UNL A   1      13.937  -0.033  -2.112  0.00  0.00    -0.049 A 
ATOM     42  C   UNL A   1      14.723   0.837  -1.316  0.00  0.00    +0.022 A 
ATOM     43  C   UNL A   1      17.499   3.147   0.949  0.00  0.00    -0.010 C 
ATOM     44  C   UNL A   1      17.483   4.648   0.691  0.00  0.00    -0.047 C 
ATOM     45  C   UNL A   1      16.058   5.166   0.799  0.00  0.00    -0.049 C 
ATOM     46  C   UNL A   1      15.168   4.514  -0.258  0.00  0.00    -0.024 C 
ENDBRANCH  30  32
ENDBRANCH  29  30
ENDBRANCH  28  29
ENDBRANCH  27  28
ENDBRANCH  26  27
ENDBRANCH  25  26
ENDBRANCH  24  25
ENDBRANCH   1  24
TORSDOF 14
