MODEL 1
REMARK VINA RESULT:    -7.000      0.000      0.000
REMARK INTER + INTRA:         -18.027
REMARK INTER:                 -12.728
REMARK INTRA:                  -5.299
REMARK UNBOUND:                -5.299
REMARK  Name = cpd20.pdb
REMARK  16 active torsions:
REMARK  status: ('A' for Active; 'I' for Inactive)
REMARK    1  A    between atoms: C_1  and  C_2
REMARK    2  A    between atoms: C_6  and  N_7
REMARK    3  A    between atoms: N_7  and  C_8
REMARK    4  A    between atoms: C_13  and  C_14
REMARK    5  A    between atoms: N_16  and  C_17
REMARK    6  A    between atoms: C_17  and  C_18
REMARK    7  A    between atoms: C_18  and  C_19
REMARK    8  A    between atoms: C_19  and  C_20
REMARK    9  A    between atoms: C_20  and  C_21
REMARK   10  A    between atoms: C_21  and  C_22
REMARK   11  A    between atoms: C_22  and  C_23
REMARK   12  A    between atoms: C_23  and  C_24
REMARK   13  A    between atoms: C_24  and  C_25
REMARK   14  A    between atoms: C_25  and  N_26
REMARK   15  A    between atoms: N_26  and  C_27
REMARK   16  A    between atoms: C_42  and  C_43
REMARK                            x       y       z     vdW  Elec       q    Type
REMARK                         _______ _______ _______ _____ _____    ______ ____
ROOT
ATOM      1  C   UNL A   1      28.975 -34.914 -30.405  0.00  0.00    -0.052 C 
ENDROOT
BRANCH   1   2
ATOM      2  C   UNL A   1      28.779 -35.321 -31.867  0.00  0.00    -0.037 C 
BRANCH   2   3
ATOM      3  C   UNL A   1      30.033 -35.167 -32.726  0.00  0.00    +0.012 C 
BRANCH   3   6
ATOM      4  C   UNL A   1      31.696 -36.706 -33.700  0.00  0.00    +0.246 C 
ATOM      5  O   UNL A   1      32.606 -35.888 -33.589  0.00  0.00    -0.270 OA
ATOM      6  N   UNL A   1      30.389 -36.428 -33.349  0.00  0.00    -0.311 N 
ATOM      7  H   UNL A   1      29.689 -37.097 -33.525  0.00  0.00    +0.000 HD
BRANCH   4  13
ATOM      8  C   UNL A   1      32.931 -38.894 -33.496  0.00  0.00    +0.044 A 
ATOM      9  C   UNL A   1      33.105 -40.221 -33.927  0.00  0.00    -0.040 A 
ATOM     10  C   UNL A   1      32.441 -40.713 -35.053  0.00  0.00    -0.060 A 
ATOM     11  C   UNL A   1      31.574 -39.891 -35.763  0.00  0.00    -0.061 A 
ATOM     12  C   UNL A   1      31.343 -38.585 -35.329  0.00  0.00    -0.048 A 
ATOM     13  C   UNL A   1      31.987 -38.091 -34.181  0.00  0.00    +0.058 A 
BRANCH   8  14
ATOM     14  N   UNL A   1      33.587 -38.434 -32.320  0.00  0.00    -0.314 N 
ATOM     15  H   UNL A   1      33.654 -37.457 -32.220  0.00  0.00    +0.000 HD
BRANCH  14  21
ATOM     16  C   UNL A   1      33.186 -40.521 -27.793  0.00  0.00    -0.039 C 
ATOM     17  C   UNL A   1      33.967 -40.180 -29.033  0.00  0.00    -0.046 A 
ATOM     18  C   UNL A   1      35.323 -40.536 -29.090  0.00  0.00    -0.058 A 
ATOM     19  C   UNL A   1      36.095 -40.215 -30.203  0.00  0.00    -0.060 A 
ATOM     20  C   UNL A   1      35.519 -39.539 -31.275  0.00  0.00    -0.040 A 
ATOM     21  C   UNL A   1      34.157 -39.208 -31.271  0.00  0.00    +0.035 A 
ATOM     22  C   UNL A   1      33.371 -39.526 -30.137  0.00  0.00    -0.026 A 
ATOM     23  C   UNL A   1      31.920 -39.110 -30.092  0.00  0.00    -0.038 C 
ENDBRANCH  14  21
ENDBRANCH   8  14
ENDBRANCH   4  13
ENDBRANCH   3   6
ENDBRANCH   2   3
ENDBRANCH   1   2
BRANCH   1  24
ATOM     24  C   UNL A   1      30.411 -34.514 -30.059  0.00  0.00    -0.053 C 
BRANCH  24  25
ATOM     25  C   UNL A   1      30.539 -32.995 -29.921  0.00  0.00    -0.053 C 
BRANCH  25  26
ATOM     26  C   UNL A   1      31.969 -32.581 -29.569  0.00  0.00    -0.053 C 
BRANCH  26  27
ATOM     27  C   UNL A   1      32.966 -33.119 -30.598  0.00  0.00    -0.052 C 
BRANCH  27  28
ATOM     28  C   UNL A   1      34.426 -32.958 -30.167  0.00  0.00    -0.037 C 
BRANCH  28  29
ATOM     29  C   UNL A   1      35.371 -33.900 -30.919  0.00  0.00    +0.009 C 
BRANCH  29  30
ATOM     30  N   UNL A   1      34.976 -35.313 -30.784  0.00  0.00    -0.343 N 
ATOM     31  H   UNL A   1      34.304 -35.727 -31.372  0.00  0.00    +0.000 HD
BRANCH  30  32
ATOM     32  C   UNL A   1      35.628 -36.038 -29.752  0.00  0.00    +0.041 A 
ATOM     33  C   UNL A   1      34.914 -36.427 -28.595  0.00  0.00    -0.005 A 
ATOM     34  C   UNL A   1      35.585 -37.208 -27.650  0.00  0.00    +0.047 A 
ATOM     35  N   UNL A   1      36.859 -37.635 -27.808  0.00  0.00    -0.251 NA
ATOM     36  C   UNL A   1      37.546 -37.249 -28.888  0.00  0.00    +0.074 A 
ATOM     37  C   UNL A   1      38.863 -37.670 -28.999  0.00  0.00    -0.017 A 
ATOM     38  C   UNL A   1      39.659 -37.281 -30.071  0.00  0.00    +0.043 A 
ATOM     39 CL   UNL A   1      41.289 -37.822 -30.171  0.00  0.00    -0.083 Cl
ATOM     40  C   UNL A   1      39.150 -36.446 -31.054  0.00  0.00    -0.043 A 
ATOM     41  C   UNL A   1      37.827 -36.019 -30.959  0.00  0.00    -0.049 A 
ATOM     42  C   UNL A   1      36.990 -36.431 -29.893  0.00  0.00    +0.022 A 
ATOM     43  C   UNL A   1      34.911 -37.689 -26.390  0.00  0.00    -0.010 C 
ATOM     44  C   UNL A   1      33.698 -36.856 -26.001  0.00  0.00    -0.047 C 
ATOM     45  C   UNL A   1      32.783 -36.698 -27.204  0.00  0.00    -0.049 C 
ATOM     46  C   UNL A   1      33.501 -35.956 -28.331  0.00  0.00    -0.024 C 
ENDBRANCH  30  32
ENDBRANCH  29  30
ENDBRANCH  28  29
ENDBRANCH  27  28
ENDBRANCH  26  27
ENDBRANCH  25  26
ENDBRANCH  24  25
ENDBRANCH   1  24
TORSDOF 14
ENDMDL
MODEL 2
REMARK VINA RESULT:    -6.890      2.808      6.925
REMARK INTER + INTRA:         -17.828
REMARK INTER:                 -13.890
REMARK INTRA:                  -3.937
REMARK UNBOUND:                -5.299
REMARK  Name = cpd20.pdb
REMARK  16 active torsions:
REMARK  status: ('A' for Active; 'I' for Inactive)
REMARK    1  A    between atoms: C_1  and  C_2
REMARK    2  A    between atoms: C_6  and  N_7
REMARK    3  A    between atoms: N_7  and  C_8
REMARK    4  A    between atoms: C_13  and  C_14
REMARK    5  A    between atoms: N_16  and  C_17
REMARK    6  A    between atoms: C_17  and  C_18
REMARK    7  A    between atoms: C_18  and  C_19
REMARK    8  A    between atoms: C_19  and  C_20
REMARK    9  A    between atoms: C_20  and  C_21
REMARK   10  A    between atoms: C_21  and  C_22
REMARK   11  A    between atoms: C_22  and  C_23
REMARK   12  A    between atoms: C_23  and  C_24
REMARK   13  A    between atoms: C_24  and  C_25
REMARK   14  A    between atoms: C_25  and  N_26
REMARK   15  A    between atoms: N_26  and  C_27
REMARK   16  A    between atoms: C_42  and  C_43
REMARK                            x       y       z     vdW  Elec       q    Type
REMARK                         _______ _______ _______ _____ _____    ______ ____
ROOT
ATOM      1  C   UNL A   1      32.500 -36.997 -32.607  0.00  0.00    -0.052 C 
ENDROOT
BRANCH   1   2
ATOM      2  C   UNL A   1      32.601 -38.302 -33.398  0.00  0.00    -0.037 C 
BRANCH   2   3
ATOM      3  C   UNL A   1      33.428 -39.383 -32.705  0.00  0.00    +0.012 C 
BRANCH   3   6
ATOM      4  C   UNL A   1      34.879 -39.056 -30.737  0.00  0.00    +0.246 C 
ATOM      5  O   UNL A   1      35.889 -39.389 -31.353  0.00  0.00    -0.270 OA
ATOM      6  N   UNL A   1      33.618 -39.068 -31.302  0.00  0.00    -0.311 N 
ATOM      7  H   UNL A   1      32.836 -38.859 -30.742  0.00  0.00    +0.000 HD
BRANCH   4  13
ATOM      8  C   UNL A   1      36.040 -37.685 -28.969  0.00  0.00    +0.044 A 
ATOM      9  C   UNL A   1      36.048 -37.169 -27.661  0.00  0.00    -0.040 A 
ATOM     10  C   UNL A   1      35.105 -37.573 -26.714  0.00  0.00    -0.060 A 
ATOM     11  C   UNL A   1      34.120 -38.490 -27.060  0.00  0.00    -0.061 A 
ATOM     12  C   UNL A   1      34.056 -38.980 -28.365  0.00  0.00    -0.048 A 
ATOM     13  C   UNL A   1      34.986 -38.558 -29.332  0.00  0.00    +0.058 A 
BRANCH   8  14
ATOM     14  N   UNL A   1      36.987 -37.223 -29.925  0.00  0.00    -0.314 N 
ATOM     15  H   UNL A   1      36.613 -36.785 -30.724  0.00  0.00    +0.000 HD
BRANCH  14  21
ATOM     16  C   UNL A   1      41.447 -36.276 -31.979  0.00  0.00    -0.039 C 
ATOM     17  C   UNL A   1      40.580 -36.888 -30.912  0.00  0.00    -0.046 A 
ATOM     18  C   UNL A   1      41.191 -37.664 -29.915  0.00  0.00    -0.058 A 
ATOM     19  C   UNL A   1      40.428 -38.276 -28.925  0.00  0.00    -0.060 A 
ATOM     20  C   UNL A   1      39.045 -38.116 -28.917  0.00  0.00    -0.040 A 
ATOM     21  C   UNL A   1      38.406 -37.312 -29.871  0.00  0.00    +0.035 A 
ATOM     22  C   UNL A   1      39.179 -36.694 -30.885  0.00  0.00    -0.026 A 
ATOM     23  C   UNL A   1      38.493 -35.884 -31.960  0.00  0.00    -0.038 C 
ENDBRANCH  14  21
ENDBRANCH   8  14
ENDBRANCH   4  13
ENDBRANCH   3   6
ENDBRANCH   2   3
ENDBRANCH   1   2
BRANCH   1  24
ATOM     24  C   UNL A   1      33.212 -35.814 -33.266  0.00  0.00    -0.053 C 
BRANCH  24  25
ATOM     25  C   UNL A   1      34.388 -35.336 -32.410  0.00  0.00    -0.053 C 
BRANCH  25  26
ATOM     26  C   UNL A   1      34.031 -35.319 -30.923  0.00  0.00    -0.053 C 
BRANCH  26  27
ATOM     27  C   UNL A   1      34.947 -34.366 -30.150  0.00  0.00    -0.052 C 
BRANCH  27  28
ATOM     28  C   UNL A   1      34.986 -32.953 -30.741  0.00  0.00    -0.037 C 
BRANCH  28  29
ATOM     29  C   UNL A   1      33.596 -32.321 -30.850  0.00  0.00    +0.009 C 
BRANCH  29  30
ATOM     30  N   UNL A   1      33.061 -31.917 -29.539  0.00  0.00    -0.343 N 
ATOM     31  H   UNL A   1      33.601 -31.420 -28.883  0.00  0.00    +0.000 HD
BRANCH  30  32
ATOM     32  C   UNL A   1      31.715 -32.291 -29.282  0.00  0.00    +0.041 A 
ATOM     33  C   UNL A   1      30.650 -31.534 -29.823  0.00  0.00    -0.005 A 
ATOM     34  C   UNL A   1      29.349 -31.995 -29.604  0.00  0.00    +0.047 A 
ATOM     35  N   UNL A   1      29.067 -33.139 -28.940  0.00  0.00    -0.251 NA
ATOM     36  C   UNL A   1      30.069 -33.845 -28.405  0.00  0.00    +0.074 A 
ATOM     37  C   UNL A   1      29.744 -34.991 -27.694  0.00  0.00    -0.017 A 
ATOM     38  C   UNL A   1      30.722 -35.761 -27.074  0.00  0.00    +0.043 A 
ATOM     39 CL   UNL A   1      30.277 -37.174 -26.200  0.00  0.00    -0.083 Cl
ATOM     40  C   UNL A   1      32.055 -35.387 -27.144  0.00  0.00    -0.043 A 
ATOM     41  C   UNL A   1      32.400 -34.241 -27.860  0.00  0.00    -0.049 A 
ATOM     42  C   UNL A   1      31.421 -33.462 -28.526  0.00  0.00    +0.022 A 
ATOM     43  C   UNL A   1      28.144 -31.271 -30.149  0.00  0.00    -0.010 C 
ATOM     44  C   UNL A   1      28.415 -29.807 -30.468  0.00  0.00    -0.047 C 
ATOM     45  C   UNL A   1      29.675 -29.696 -31.311  0.00  0.00    -0.049 C 
ATOM     46  C   UNL A   1      30.885 -30.224 -30.542  0.00  0.00    -0.024 C 
ENDBRANCH  30  32
ENDBRANCH  29  30
ENDBRANCH  28  29
ENDBRANCH  27  28
ENDBRANCH  26  27
ENDBRANCH  25  26
ENDBRANCH  24  25
ENDBRANCH   1  24
TORSDOF 14
ENDMDL
MODEL 3
REMARK VINA RESULT:    -6.789     18.326     21.959
REMARK INTER + INTRA:         -17.645
REMARK INTER:                 -12.855
REMARK INTRA:                  -4.790
REMARK UNBOUND:                -5.299
REMARK  Name = cpd20.pdb
REMARK  16 active torsions:
REMARK  status: ('A' for Active; 'I' for Inactive)
REMARK    1  A    between atoms: C_1  and  C_2
REMARK    2  A    between atoms: C_6  and  N_7
REMARK    3  A    between atoms: N_7  and  C_8
REMARK    4  A    between atoms: C_13  and  C_14
REMARK    5  A    between atoms: N_16  and  C_17
REMARK    6  A    between atoms: C_17  and  C_18
REMARK    7  A    between atoms: C_18  and  C_19
REMARK    8  A    between atoms: C_19  and  C_20
REMARK    9  A    between atoms: C_20  and  C_21
REMARK   10  A    between atoms: C_21  and  C_22
REMARK   11  A    between atoms: C_22  and  C_23
REMARK   12  A    between atoms: C_23  and  C_24
REMARK   13  A    between atoms: C_24  and  C_25
REMARK   14  A    between atoms: C_25  and  N_26
REMARK   15  A    between atoms: N_26  and  C_27
REMARK   16  A    between atoms: C_42  and  C_43
REMARK                            x       y       z     vdW  Elec       q    Type
REMARK                         _______ _______ _______ _____ _____    ______ ____
ROOT
ATOM      1  C   UNL A   1      43.070 -18.975 -35.412  0.00  0.00    -0.052 C 
ENDROOT
BRANCH   1   2
ATOM      2  C   UNL A   1      43.482 -20.171 -34.551  0.00  0.00    -0.037 C 
BRANCH   2   3
ATOM      3  C   UNL A   1      42.303 -20.962 -33.986  0.00  0.00    +0.012 C 
BRANCH   3   6
ATOM      4  C   UNL A   1      39.895 -21.036 -34.515  0.00  0.00    +0.246 C 
ATOM      5  O   UNL A   1      39.881 -22.264 -34.555  0.00  0.00    -0.270 OA
ATOM      6  N   UNL A   1      41.046 -20.306 -34.291  0.00  0.00    -0.311 N 
ATOM      7  H   UNL A   1      41.012 -19.323 -34.339  0.00  0.00    +0.000 HD
BRANCH   4  13
ATOM      8  C   UNL A   1      38.105 -19.983 -35.943  0.00  0.00    +0.044 A 
ATOM      9  C   UNL A   1      36.859 -19.336 -36.026  0.00  0.00    -0.040 A 
ATOM     10  C   UNL A   1      36.190 -18.897 -34.882  0.00  0.00    -0.060 A 
ATOM     11  C   UNL A   1      36.745 -19.112 -33.626  0.00  0.00    -0.061 A 
ATOM     12  C   UNL A   1      37.955 -19.796 -33.510  0.00  0.00    -0.048 A 
ATOM     13  C   UNL A   1      38.622 -20.265 -34.656  0.00  0.00    +0.058 A 
BRANCH   8  14
ATOM     14  N   UNL A   1      38.742 -20.458 -37.123  0.00  0.00    -0.314 N 
ATOM     15  H   UNL A   1      38.354 -21.267 -37.526  0.00  0.00    +0.000 HD
BRANCH  14  21
ATOM     16  C   UNL A   1      43.269 -21.077 -39.159  0.00  0.00    -0.039 C 
ATOM     17  C   UNL A   1      42.108 -20.215 -38.741  0.00  0.00    -0.046 A 
ATOM     18  C   UNL A   1      42.207 -18.827 -38.914  0.00  0.00    -0.058 A 
ATOM     19  C   UNL A   1      41.173 -17.986 -38.514  0.00  0.00    -0.060 A 
ATOM     20  C   UNL A   1      40.024 -18.523 -37.941  0.00  0.00    -0.040 A 
ATOM     21  C   UNL A   1      39.872 -19.909 -37.794  0.00  0.00    +0.035 A 
ATOM     22  C   UNL A   1      40.926 -20.767 -38.192  0.00  0.00    -0.026 A 
ATOM     23  C   UNL A   1      40.802 -22.256 -37.973  0.00  0.00    -0.038 C 
ENDBRANCH  14  21
ENDBRANCH   8  14
ENDBRANCH   4  13
ENDBRANCH   3   6
ENDBRANCH   2   3
ENDBRANCH   1   2
BRANCH   1  24
ATOM     24  C   UNL A   1      43.825 -17.685 -35.086  0.00  0.00    -0.053 C 
BRANCH  24  25
ATOM     25  C   UNL A   1      44.979 -17.955 -34.118  0.00  0.00    -0.053 C 
BRANCH  25  26
ATOM     26  C   UNL A   1      46.291 -17.352 -34.624  0.00  0.00    -0.053 C 
BRANCH  26  27
ATOM     27  C   UNL A   1      46.642 -17.889 -36.013  0.00  0.00    -0.052 C 
BRANCH  27  28
ATOM     28  C   UNL A   1      47.036 -19.369 -36.007  0.00  0.00    -0.037 C 
BRANCH  28  29
ATOM     29  C   UNL A   1      46.573 -20.109 -37.265  0.00  0.00    +0.009 C 
BRANCH  29  30
ATOM     30  N   UNL A   1      47.417 -19.807 -38.434  0.00  0.00    -0.343 N 
ATOM     31  H   UNL A   1      48.361 -19.544 -38.344  0.00  0.00    +0.000 HD
BRANCH  30  32
ATOM     32  C   UNL A   1      46.780 -19.920 -39.698  0.00  0.00    +0.041 A 
ATOM     33  C   UNL A   1      46.922 -21.100 -40.463  0.00  0.00    -0.005 A 
ATOM     34  C   UNL A   1      46.207 -21.186 -41.662  0.00  0.00    +0.047 A 
ATOM     35  N   UNL A   1      45.366 -20.220 -42.097  0.00  0.00    -0.251 NA
ATOM     36  C   UNL A   1      45.248 -19.093 -41.389  0.00  0.00    +0.074 A 
ATOM     37  C   UNL A   1      44.409 -18.105 -41.884  0.00  0.00    -0.017 A 
ATOM     38  C   UNL A   1      44.260 -16.887 -41.230  0.00  0.00    +0.043 A 
ATOM     39 CL   UNL A   1      43.212 -15.686 -41.879  0.00  0.00    -0.083 Cl
ATOM     40  C   UNL A   1      44.963 -16.629 -40.064  0.00  0.00    -0.043 A 
ATOM     41  C   UNL A   1      45.805 -17.613 -39.549  0.00  0.00    -0.049 A 
ATOM     42  C   UNL A   1      45.945 -18.873 -40.183  0.00  0.00    +0.022 A 
ATOM     43  C   UNL A   1      46.276 -22.406 -42.545  0.00  0.00    -0.010 C 
ATOM     44  C   UNL A   1      47.524 -23.248 -42.313  0.00  0.00    -0.047 C 
ATOM     45  C   UNL A   1      47.686 -23.515 -40.825  0.00  0.00    -0.049 C 
ATOM     46  C   UNL A   1      47.873 -22.205 -40.061  0.00  0.00    -0.024 C 
ENDBRANCH  30  32
ENDBRANCH  29  30
ENDBRANCH  28  29
ENDBRANCH  27  28
ENDBRANCH  26  27
ENDBRANCH  25  26
ENDBRANCH  24  25
ENDBRANCH   1  24
TORSDOF 14
ENDMDL
MODEL 4
REMARK VINA RESULT:    -6.598     17.273     20.739
REMARK INTER + INTRA:         -17.296
REMARK INTER:                 -13.012
REMARK INTRA:                  -4.284
REMARK UNBOUND:                -5.299
REMARK  Name = cpd20.pdb
REMARK  16 active torsions:
REMARK  status: ('A' for Active; 'I' for Inactive)
REMARK    1  A    between atoms: C_1  and  C_2
REMARK    2  A    between atoms: C_6  and  N_7
REMARK    3  A    between atoms: N_7  and  C_8
REMARK    4  A    between atoms: C_13  and  C_14
REMARK    5  A    between atoms: N_16  and  C_17
REMARK    6  A    between atoms: C_17  and  C_18
REMARK    7  A    between atoms: C_18  and  C_19
REMARK    8  A    between atoms: C_19  and  C_20
REMARK    9  A    between atoms: C_20  and  C_21
REMARK   10  A    between atoms: C_21  and  C_22
REMARK   11  A    between atoms: C_22  and  C_23
REMARK   12  A    between atoms: C_23  and  C_24
REMARK   13  A    between atoms: C_24  and  C_25
REMARK   14  A    between atoms: C_25  and  N_26
REMARK   15  A    between atoms: N_26  and  C_27
REMARK   16  A    between atoms: C_42  and  C_43
REMARK                            x       y       z     vdW  Elec       q    Type
REMARK                         _______ _______ _______ _____ _____    ______ ____
ROOT
ATOM      1  C   UNL A   1      42.109 -21.121 -38.944  0.00  0.00    -0.052 C 
ENDROOT
BRANCH   1   2
ATOM      2  C   UNL A   1      41.327 -21.654 -40.146  0.00  0.00    -0.037 C 
BRANCH   2   3
ATOM      3  C   UNL A   1      42.016 -21.416 -41.488  0.00  0.00    +0.012 C 
BRANCH   3   6
ATOM      4  C   UNL A   1      44.411 -21.181 -42.031  0.00  0.00    +0.246 C 
ATOM      5  O   UNL A   1      44.228 -20.141 -42.658  0.00  0.00    -0.270 OA
ATOM      6  N   UNL A   1      43.382 -21.905 -41.461  0.00  0.00    -0.311 N 
ATOM      7  H   UNL A   1      43.579 -22.768 -41.030  0.00  0.00    +0.000 HD
BRANCH   4  13
ATOM      8  C   UNL A   1      46.679 -20.981 -40.948  0.00  0.00    +0.044 A 
ATOM      9  C   UNL A   1      47.943 -21.542 -40.692  0.00  0.00    -0.040 A 
ATOM     10  C   UNL A   1      48.363 -22.710 -41.332  0.00  0.00    -0.060 A 
ATOM     11  C   UNL A   1      47.519 -23.354 -42.230  0.00  0.00    -0.061 A 
ATOM     12  C   UNL A   1      46.240 -22.848 -42.465  0.00  0.00    -0.048 A 
ATOM     13  C   UNL A   1      45.800 -21.687 -41.804  0.00  0.00    +0.058 A 
BRANCH   8  14
ATOM     14  N   UNL A   1      46.261 -19.814 -40.249  0.00  0.00    -0.314 N 
ATOM     15  H   UNL A   1      46.355 -18.964 -40.737  0.00  0.00    +0.000 HD
BRANCH  14  21
ATOM     16  C   UNL A   1      43.055 -17.711 -37.038  0.00  0.00    -0.039 C 
ATOM     17  C   UNL A   1      44.188 -18.648 -37.361  0.00  0.00    -0.046 A 
ATOM     18  C   UNL A   1      44.798 -19.350 -36.311  0.00  0.00    -0.058 A 
ATOM     19  C   UNL A   1      45.869 -20.204 -36.555  0.00  0.00    -0.060 A 
ATOM     20  C   UNL A   1      46.340 -20.372 -37.854  0.00  0.00    -0.040 A 
ATOM     21  C   UNL A   1      45.725 -19.721 -38.934  0.00  0.00    +0.035 A 
ATOM     22  C   UNL A   1      44.640 -18.845 -38.688  0.00  0.00    -0.026 A 
ATOM     23  C   UNL A   1      44.017 -18.084 -39.834  0.00  0.00    -0.038 C 
ENDBRANCH  14  21
ENDBRANCH   8  14
ENDBRANCH   4  13
ENDBRANCH   3   6
ENDBRANCH   2   3
ENDBRANCH   1   2
BRANCH   1  24
ATOM     24  C   UNL A   1      41.849 -21.887 -37.645  0.00  0.00    -0.053 C 
BRANCH  24  25
ATOM     25  C   UNL A   1      41.171 -20.990 -36.607  0.00  0.00    -0.053 C 
BRANCH  25  26
ATOM     26  C   UNL A   1      39.731 -21.430 -36.337  0.00  0.00    -0.053 C 
BRANCH  26  27
ATOM     27  C   UNL A   1      39.679 -22.893 -35.890  0.00  0.00    -0.052 C 
BRANCH  27  28
ATOM     28  C   UNL A   1      39.286 -23.062 -34.419  0.00  0.00    -0.037 C 
BRANCH  28  29
ATOM     29  C   UNL A   1      40.406 -22.654 -33.459  0.00  0.00    +0.009 C 
BRANCH  29  30
ATOM     30  N   UNL A   1      39.929 -21.760 -32.390  0.00  0.00    -0.343 N 
ATOM     31  H   UNL A   1      39.758 -22.082 -31.476  0.00  0.00    +0.000 HD
BRANCH  30  32
ATOM     32  C   UNL A   1      39.730 -20.405 -32.764  0.00  0.00    +0.041 A 
ATOM     33  C   UNL A   1      38.422 -19.891 -32.909  0.00  0.00    -0.005 A 
ATOM     34  C   UNL A   1      38.287 -18.530 -33.200  0.00  0.00    +0.047 A 
ATOM     35  N   UNL A   1      39.338 -17.685 -33.308  0.00  0.00    -0.251 NA
ATOM     36  C   UNL A   1      40.578 -18.172 -33.196  0.00  0.00    +0.074 A 
ATOM     37  C   UNL A   1      41.635 -17.288 -33.354  0.00  0.00    -0.017 A 
ATOM     38  C   UNL A   1      42.956 -17.719 -33.292  0.00  0.00    +0.043 A 
ATOM     39 CL   UNL A   1      44.239 -16.590 -33.495  0.00  0.00    -0.083 Cl
ATOM     40  C   UNL A   1      43.245 -19.057 -33.080  0.00  0.00    -0.043 A 
ATOM     41  C   UNL A   1      42.195 -19.958 -32.913  0.00  0.00    -0.049 A 
ATOM     42  C   UNL A   1      40.843 -19.533 -32.941  0.00  0.00    +0.022 A 
ATOM     43  C   UNL A   1      36.937 -17.878 -33.360  0.00  0.00    -0.010 C 
ATOM     44  C   UNL A   1      35.828 -18.867 -33.697  0.00  0.00    -0.047 C 
ATOM     45  C   UNL A   1      35.874 -20.032 -32.722  0.00  0.00    -0.049 C 
ATOM     46  C   UNL A   1      37.200 -20.780 -32.841  0.00  0.00    -0.024 C 
ENDBRANCH  30  32
ENDBRANCH  29  30
ENDBRANCH  28  29
ENDBRANCH  27  28
ENDBRANCH  26  27
ENDBRANCH  25  26
ENDBRANCH  24  25
ENDBRANCH   1  24
TORSDOF 14
ENDMDL
MODEL 5
REMARK VINA RESULT:    -6.569     18.989     22.498
REMARK INTER + INTRA:         -17.244
REMARK INTER:                 -10.707
REMARK INTRA:                  -6.537
REMARK UNBOUND:                -5.299
REMARK  Name = cpd20.pdb
REMARK  16 active torsions:
REMARK  status: ('A' for Active; 'I' for Inactive)
REMARK    1  A    between atoms: C_1  and  C_2
REMARK    2  A    between atoms: C_6  and  N_7
REMARK    3  A    between atoms: N_7  and  C_8
REMARK    4  A    between atoms: C_13  and  C_14
REMARK    5  A    between atoms: N_16  and  C_17
REMARK    6  A    between atoms: C_17  and  C_18
REMARK    7  A    between atoms: C_18  and  C_19
REMARK    8  A    between atoms: C_19  and  C_20
REMARK    9  A    between atoms: C_20  and  C_21
REMARK   10  A    between atoms: C_21  and  C_22
REMARK   11  A    between atoms: C_22  and  C_23
REMARK   12  A    between atoms: C_23  and  C_24
REMARK   13  A    between atoms: C_24  and  C_25
REMARK   14  A    between atoms: C_25  and  N_26
REMARK   15  A    between atoms: N_26  and  C_27
REMARK   16  A    between atoms: C_42  and  C_43
REMARK                            x       y       z     vdW  Elec       q    Type
REMARK                         _______ _______ _______ _____ _____    ______ ____
ROOT
ATOM      1  C   UNL A   1      40.283 -16.625 -37.712  0.00  0.00    -0.052 C 
ENDROOT
BRANCH   1   2
ATOM      2  C   UNL A   1      40.282 -16.693 -39.240  0.00  0.00    -0.037 C 
BRANCH   2   3
ATOM      3  C   UNL A   1      41.474 -15.993 -39.891  0.00  0.00    +0.012 C 
BRANCH   3   6
ATOM      4  C   UNL A   1      43.920 -16.050 -39.571  0.00  0.00    +0.246 C 
ATOM      5  O   UNL A   1      44.137 -16.062 -40.780  0.00  0.00    -0.270 OA
ATOM      6  N   UNL A   1      42.645 -16.065 -39.037  0.00  0.00    -0.311 N 
ATOM      7  H   UNL A   1      42.530 -16.124 -38.061  0.00  0.00    +0.000 HD
BRANCH   4  13
ATOM      8  C   UNL A   1      46.193 -16.787 -38.768  0.00  0.00    +0.044 A 
ATOM      9  C   UNL A   1      47.275 -16.603 -37.890  0.00  0.00    -0.040 A 
ATOM     10  C   UNL A   1      47.204 -15.700 -36.827  0.00  0.00    -0.060 A 
ATOM     11  C   UNL A   1      46.052 -14.947 -36.629  0.00  0.00    -0.061 A 
ATOM     12  C   UNL A   1      44.981 -15.072 -37.515  0.00  0.00    -0.048 A 
ATOM     13  C   UNL A   1      45.056 -15.959 -38.604  0.00  0.00    +0.058 A 
BRANCH   8  14
ATOM     14  N   UNL A   1      46.310 -17.681 -39.868  0.00  0.00    -0.314 N 
ATOM     15  H   UNL A   1      46.384 -17.264 -40.756  0.00  0.00    +0.000 HD
BRANCH  14  21
ATOM     16  C   UNL A   1      45.286 -22.046 -42.085  0.00  0.00    -0.039 C 
ATOM     17  C   UNL A   1      45.780 -21.233 -40.918  0.00  0.00    -0.046 A 
ATOM     18  C   UNL A   1      46.157 -21.904 -39.745  0.00  0.00    -0.058 A 
ATOM     19  C   UNL A   1      46.591 -21.194 -38.630  0.00  0.00    -0.060 A 
ATOM     20  C   UNL A   1      46.659 -19.805 -38.675  0.00  0.00    -0.040 A 
ATOM     21  C   UNL A   1      46.333 -19.104 -39.845  0.00  0.00    +0.035 A 
ATOM     22  C   UNL A   1      45.884 -19.823 -40.980  0.00  0.00    -0.026 A 
ATOM     23  C   UNL A   1      45.462 -19.075 -42.222  0.00  0.00    -0.038 C 
ENDBRANCH  14  21
ENDBRANCH   8  14
ENDBRANCH   4  13
ENDBRANCH   3   6
ENDBRANCH   2   3
ENDBRANCH   1   2
BRANCH   1  24
ATOM     24  C   UNL A   1      39.807 -17.911 -37.033  0.00  0.00    -0.053 C 
BRANCH  24  25
ATOM     25  C   UNL A   1      40.126 -17.892 -35.536  0.00  0.00    -0.053 C 
BRANCH  25  26
ATOM     26  C   UNL A   1      39.427 -19.033 -34.796  0.00  0.00    -0.053 C 
BRANCH  26  27
ATOM     27  C   UNL A   1      38.778 -20.009 -35.781  0.00  0.00    -0.052 C 
BRANCH  27  28
ATOM     28  C   UNL A   1      39.146 -21.472 -35.514  0.00  0.00    -0.037 C 
BRANCH  28  29
ATOM     29  C   UNL A   1      40.415 -21.616 -34.669  0.00  0.00    +0.009 C 
BRANCH  29  30
ATOM     30  N   UNL A   1      41.565 -22.079 -35.463  0.00  0.00    -0.343 N 
ATOM     31  H   UNL A   1      41.839 -23.024 -35.487  0.00  0.00    +0.000 HD
BRANCH  30  32
ATOM     32  C   UNL A   1      42.254 -21.073 -36.192  0.00  0.00    +0.041 A 
ATOM     33  C   UNL A   1      42.079 -20.962 -37.591  0.00  0.00    -0.005 A 
ATOM     34  C   UNL A   1      42.719 -19.904 -38.243  0.00  0.00    +0.047 A 
ATOM     35  N   UNL A   1      43.456 -18.971 -37.599  0.00  0.00    -0.251 NA
ATOM     36  C   UNL A   1      43.644 -19.086 -36.281  0.00  0.00    +0.074 A 
ATOM     37  C   UNL A   1      44.440 -18.136 -35.657  0.00  0.00    -0.017 A 
ATOM     38  C   UNL A   1      44.718 -18.204 -34.296  0.00  0.00    +0.043 A 
ATOM     39 CL   UNL A   1      45.712 -17.007 -33.562  0.00  0.00    -0.083 Cl
ATOM     40  C   UNL A   1      44.210 -19.241 -33.530  0.00  0.00    -0.043 A 
ATOM     41  C   UNL A   1      43.404 -20.201 -34.140  0.00  0.00    -0.049 A 
ATOM     42  C   UNL A   1      43.082 -20.130 -35.518  0.00  0.00    +0.022 A 
ATOM     43  C   UNL A   1      42.586 -19.687 -39.729  0.00  0.00    -0.010 C 
ATOM     44  C   UNL A   1      42.174 -20.942 -40.487  0.00  0.00    -0.047 C 
ATOM     45  C   UNL A   1      40.963 -21.567 -39.813  0.00  0.00    -0.049 C 
ATOM     46  C   UNL A   1      41.302 -21.990 -38.384  0.00  0.00    -0.024 C 
ENDBRANCH  30  32
ENDBRANCH  29  30
ENDBRANCH  28  29
ENDBRANCH  27  28
ENDBRANCH  26  27
ENDBRANCH  25  26
ENDBRANCH  24  25
ENDBRANCH   1  24
TORSDOF 14
ENDMDL
MODEL 6
REMARK VINA RESULT:    -6.561      3.068      7.647
REMARK INTER + INTRA:         -17.230
REMARK INTER:                 -11.648
REMARK INTRA:                  -5.582
REMARK UNBOUND:                -5.299
REMARK  Name = cpd20.pdb
REMARK  16 active torsions:
REMARK  status: ('A' for Active; 'I' for Inactive)
REMARK    1  A    between atoms: C_1  and  C_2
REMARK    2  A    between atoms: C_6  and  N_7
REMARK    3  A    between atoms: N_7  and  C_8
REMARK    4  A    between atoms: C_13  and  C_14
REMARK    5  A    between atoms: N_16  and  C_17
REMARK    6  A    between atoms: C_17  and  C_18
REMARK    7  A    between atoms: C_18  and  C_19
REMARK    8  A    between atoms: C_19  and  C_20
REMARK    9  A    between atoms: C_20  and  C_21
REMARK   10  A    between atoms: C_21  and  C_22
REMARK   11  A    between atoms: C_22  and  C_23
REMARK   12  A    between atoms: C_23  and  C_24
REMARK   13  A    between atoms: C_24  and  C_25
REMARK   14  A    between atoms: C_25  and  N_26
REMARK   15  A    between atoms: N_26  and  C_27
REMARK   16  A    between atoms: C_42  and  C_43
REMARK                            x       y       z     vdW  Elec       q    Type
REMARK                         _______ _______ _______ _____ _____    ______ ____
ROOT
ATOM      1  C   UNL A   1      32.771 -37.648 -25.832  0.00  0.00    -0.052 C 
ENDROOT
BRANCH   1   2
ATOM      2  C   UNL A   1      32.072 -38.183 -27.083  0.00  0.00    -0.037 C 
BRANCH   2   3
ATOM      3  C   UNL A   1      31.125 -37.180 -27.739  0.00  0.00    +0.012 C 
BRANCH   3   6
ATOM      4  C   UNL A   1      31.514 -34.865 -28.499  0.00  0.00    +0.246 C 
ATOM      5  O   UNL A   1      30.523 -34.442 -27.909  0.00  0.00    -0.270 OA
ATOM      6  N   UNL A   1      31.864 -36.201 -28.515  0.00  0.00    -0.311 N 
ATOM      7  H   UNL A   1      32.629 -36.494 -29.061  0.00  0.00    +0.000 HD
BRANCH   4  13
ATOM      8  C   UNL A   1      31.907 -32.832 -29.936  0.00  0.00    +0.044 A 
ATOM      9  C   UNL A   1      32.811 -31.913 -30.498  0.00  0.00    -0.040 A 
ATOM     10  C   UNL A   1      34.192 -32.108 -30.413  0.00  0.00    -0.060 A 
ATOM     11  C   UNL A   1      34.699 -33.218 -29.748  0.00  0.00    -0.061 A 
ATOM     12  C   UNL A   1      33.826 -34.120 -29.138  0.00  0.00    -0.048 A 
ATOM     13  C   UNL A   1      32.436 -33.917 -29.195  0.00  0.00    +0.058 A 
BRANCH   8  14
ATOM     14  N   UNL A   1      30.507 -32.585 -30.000  0.00  0.00    -0.314 N 
ATOM     15  H   UNL A   1      29.926 -33.345 -29.771  0.00  0.00    +0.000 HD
BRANCH  14  21
ATOM     16  C   UNL A   1      27.904 -28.538 -28.637  0.00  0.00    -0.039 C 
ATOM     17  C   UNL A   1      28.525 -29.428 -29.680  0.00  0.00    -0.046 A 
ATOM     18  C   UNL A   1      28.331 -29.111 -31.033  0.00  0.00    -0.058 A 
ATOM     19  C   UNL A   1      28.859 -29.921 -32.034  0.00  0.00    -0.060 A 
ATOM     20  C   UNL A   1      29.592 -31.055 -31.695  0.00  0.00    -0.040 A 
ATOM     21  C   UNL A   1      29.842 -31.378 -30.353  0.00  0.00    +0.035 A 
ATOM     22  C   UNL A   1      29.299 -30.560 -29.332  0.00  0.00    -0.026 A 
ATOM     23  C   UNL A   1      29.503 -30.937 -27.884  0.00  0.00    -0.038 C 
ENDBRANCH  14  21
ENDBRANCH   8  14
ENDBRANCH   4  13
ENDBRANCH   3   6
ENDBRANCH   2   3
ENDBRANCH   1   2
BRANCH   1  24
ATOM     24  C   UNL A   1      34.293 -37.797 -25.859  0.00  0.00    -0.053 C 
BRANCH  24  25
ATOM     25  C   UNL A   1      34.791 -38.082 -27.278  0.00  0.00    -0.053 C 
BRANCH  25  26
ATOM     26  C   UNL A   1      35.762 -37.003 -27.762  0.00  0.00    -0.053 C 
BRANCH  26  27
ATOM     27  C   UNL A   1      37.127 -37.607 -28.102  0.00  0.00    -0.052 C 
BRANCH  27  28
ATOM     28  C   UNL A   1      37.703 -37.091 -29.424  0.00  0.00    -0.037 C 
BRANCH  28  29
ATOM     29  C   UNL A   1      36.651 -36.404 -30.298  0.00  0.00    +0.009 C 
BRANCH  29  30
ATOM     30  N   UNL A   1      36.202 -37.259 -31.410  0.00  0.00    -0.343 N 
ATOM     31  H   UNL A   1      36.786 -37.476 -32.172  0.00  0.00    +0.000 HD
BRANCH  30  32
ATOM     32  C   UNL A   1      34.873 -37.749 -31.311  0.00  0.00    +0.041 A 
ATOM     33  C   UNL A   1      34.623 -39.016 -30.734  0.00  0.00    -0.005 A 
ATOM     34  C   UNL A   1      33.290 -39.412 -30.590  0.00  0.00    +0.047 A 
ATOM     35  N   UNL A   1      32.241 -38.631 -30.936  0.00  0.00    -0.251 NA
ATOM     36  C   UNL A   1      32.473 -37.443 -31.504  0.00  0.00    +0.074 A 
ATOM     37  C   UNL A   1      31.376 -36.685 -31.886  0.00  0.00    -0.017 A 
ATOM     38  C   UNL A   1      31.529 -35.457 -32.519  0.00  0.00    +0.043 A 
ATOM     39 CL   UNL A   1      30.142 -34.549 -32.979  0.00  0.00    -0.083 Cl
ATOM     40  C   UNL A   1      32.795 -34.965 -32.794  0.00  0.00    -0.043 A 
ATOM     41  C   UNL A   1      33.908 -35.711 -32.412  0.00  0.00    -0.049 A 
ATOM     42  C   UNL A   1      33.773 -36.950 -31.737  0.00  0.00    +0.022 A 
ATOM     43  C   UNL A   1      32.914 -40.735 -29.974  0.00  0.00    -0.010 C 
ATOM     44  C   UNL A   1      34.037 -41.763 -30.022  0.00  0.00    -0.047 C 
ATOM     45  C   UNL A   1      35.317 -41.140 -29.488  0.00  0.00    -0.049 C 
ATOM     46  C   UNL A   1      35.744 -39.959 -30.359  0.00  0.00    -0.024 C 
ENDBRANCH  30  32
ENDBRANCH  29  30
ENDBRANCH  28  29
ENDBRANCH  27  28
ENDBRANCH  26  27
ENDBRANCH  25  26
ENDBRANCH  24  25
ENDBRANCH   1  24
TORSDOF 14
ENDMDL
MODEL 7
REMARK VINA RESULT:    -6.500     18.013     21.673
REMARK INTER + INTRA:         -17.119
REMARK INTER:                 -12.288
REMARK INTRA:                  -4.831
REMARK UNBOUND:                -5.299
REMARK  Name = cpd20.pdb
REMARK  16 active torsions:
REMARK  status: ('A' for Active; 'I' for Inactive)
REMARK    1  A    between atoms: C_1  and  C_2
REMARK    2  A    between atoms: C_6  and  N_7
REMARK    3  A    between atoms: N_7  and  C_8
REMARK    4  A    between atoms: C_13  and  C_14
REMARK    5  A    between atoms: N_16  and  C_17
REMARK    6  A    between atoms: C_17  and  C_18
REMARK    7  A    between atoms: C_18  and  C_19
REMARK    8  A    between atoms: C_19  and  C_20
REMARK    9  A    between atoms: C_20  and  C_21
REMARK   10  A    between atoms: C_21  and  C_22
REMARK   11  A    between atoms: C_22  and  C_23
REMARK   12  A    between atoms: C_23  and  C_24
REMARK   13  A    between atoms: C_24  and  C_25
REMARK   14  A    between atoms: C_25  and  N_26
REMARK   15  A    between atoms: N_26  and  C_27
REMARK   16  A    between atoms: C_42  and  C_43
REMARK                            x       y       z     vdW  Elec       q    Type
REMARK                         _______ _______ _______ _____ _____    ______ ____
ROOT
ATOM      1  C   UNL A   1      45.661 -16.885 -35.913  0.00  0.00    -0.052 C 
ENDROOT
BRANCH   1   2
ATOM      2  C   UNL A   1      46.801 -17.295 -36.847  0.00  0.00    -0.037 C 
BRANCH   2   3
ATOM      3  C   UNL A   1      47.360 -18.688 -36.567  0.00  0.00    +0.012 C 
BRANCH   3   6
ATOM      4  C   UNL A   1      46.257 -20.417 -37.939  0.00  0.00    +0.246 C 
ATOM      5  O   UNL A   1      45.393 -20.624 -37.090  0.00  0.00    -0.270 OA
ATOM      6  N   UNL A   1      47.292 -19.521 -37.754  0.00  0.00    -0.311 N 
ATOM      7  H   UNL A   1      47.995 -19.446 -38.439  0.00  0.00    +0.000 HD
BRANCH   4  13
ATOM      8  C   UNL A   1      45.127 -20.814 -40.157  0.00  0.00    +0.044 A 
ATOM      9  C   UNL A   1      45.151 -21.414 -41.428  0.00  0.00    -0.040 A 
ATOM     10  C   UNL A   1      46.136 -22.342 -41.775  0.00  0.00    -0.060 A 
ATOM     11  C   UNL A   1      47.129 -22.677 -40.863  0.00  0.00    -0.061 A 
ATOM     12  C   UNL A   1      47.159 -22.060 -39.612  0.00  0.00    -0.048 A 
ATOM     13  C   UNL A   1      46.187 -21.104 -39.265  0.00  0.00    +0.058 A 
BRANCH   8  14
ATOM     14  N   UNL A   1      44.138 -19.839 -39.847  0.00  0.00    -0.314 N 
ATOM     15  H   UNL A   1      43.241 -20.188 -39.639  0.00  0.00    +0.000 HD
BRANCH  14  21
ATOM     16  C   UNL A   1      42.791 -15.433 -37.902  0.00  0.00    -0.039 C 
ATOM     17  C   UNL A   1      43.577 -16.270 -38.874  0.00  0.00    -0.046 A 
ATOM     18  C   UNL A   1      44.374 -15.619 -39.828  0.00  0.00    -0.058 A 
ATOM     19  C   UNL A   1      45.095 -16.349 -40.768  0.00  0.00    -0.060 A 
ATOM     20  C   UNL A   1      45.033 -17.739 -40.763  0.00  0.00    -0.040 A 
ATOM     21  C   UNL A   1      44.282 -18.424 -39.797  0.00  0.00    +0.035 A 
ATOM     22  C   UNL A   1      43.540 -17.684 -38.844  0.00  0.00    -0.026 A 
ATOM     23  C   UNL A   1      42.672 -18.410 -37.844  0.00  0.00    -0.038 C 
ENDBRANCH  14  21
ENDBRANCH   8  14
ENDBRANCH   4  13
ENDBRANCH   3   6
ENDBRANCH   2   3
ENDBRANCH   1   2
BRANCH   1  24
ATOM     24  C   UNL A   1      45.159 -18.015 -35.012  0.00  0.00    -0.053 C 
BRANCH  24  25
ATOM     25  C   UNL A   1      45.221 -17.609 -33.538  0.00  0.00    -0.053 C 
BRANCH  25  26
ATOM     26  C   UNL A   1      43.863 -17.121 -33.031  0.00  0.00    -0.053 C 
BRANCH  26  27
ATOM     27  C   UNL A   1      42.718 -17.852 -33.737  0.00  0.00    -0.052 C 
BRANCH  27  28
ATOM     28  C   UNL A   1      42.339 -19.175 -33.065  0.00  0.00    -0.037 C 
BRANCH  28  29
ATOM     29  C   UNL A   1      42.711 -20.395 -33.911  0.00  0.00    +0.009 C 
BRANCH  29  30
ATOM     30  N   UNL A   1      41.636 -21.400 -33.946  0.00  0.00    -0.343 N 
ATOM     31  H   UNL A   1      41.633 -22.185 -33.351  0.00  0.00    +0.000 HD
BRANCH  30  32
ATOM     32  C   UNL A   1      40.603 -21.165 -34.892  0.00  0.00    +0.041 A 
ATOM     33  C   UNL A   1      39.353 -20.658 -34.470  0.00  0.00    -0.005 A 
ATOM     34  C   UNL A   1      38.403 -20.370 -35.455  0.00  0.00    +0.047 A 
ATOM     35  N   UNL A   1      38.637 -20.516 -36.779  0.00  0.00    -0.251 NA
ATOM     36  C   UNL A   1      39.809 -21.018 -37.181  0.00  0.00    +0.074 A 
ATOM     37  C   UNL A   1      40.002 -21.195 -38.543  0.00  0.00    -0.017 A 
ATOM     38  C   UNL A   1      41.176 -21.748 -39.043  0.00  0.00    +0.043 A 
ATOM     39 CL   UNL A   1      41.375 -21.952 -40.740  0.00  0.00    -0.083 Cl
ATOM     40  C   UNL A   1      42.183 -22.149 -38.179  0.00  0.00    -0.043 A 
ATOM     41  C   UNL A   1      42.008 -21.973 -36.808  0.00  0.00    -0.049 A 
ATOM     42  C   UNL A   1      40.832 -21.381 -36.282  0.00  0.00    +0.022 A 
ATOM     43  C   UNL A   1      37.045 -19.811 -35.113  0.00  0.00    -0.010 C 
ATOM     44  C   UNL A   1      36.627 -20.084 -33.674  0.00  0.00    -0.047 C 
ATOM     45  C   UNL A   1      37.749 -19.677 -32.734  0.00  0.00    -0.049 C 
ATOM     46  C   UNL A   1      39.004 -20.505 -33.006  0.00  0.00    -0.024 C 
ENDBRANCH  30  32
ENDBRANCH  29  30
ENDBRANCH  28  29
ENDBRANCH  27  28
ENDBRANCH  26  27
ENDBRANCH  25  26
ENDBRANCH  24  25
ENDBRANCH   1  24
TORSDOF 14
ENDMDL
MODEL 8
REMARK VINA RESULT:    -6.371     18.968     22.534
REMARK INTER + INTRA:         -16.885
REMARK INTER:                 -12.081
REMARK INTRA:                  -4.804
REMARK UNBOUND:                -5.299
REMARK  Name = cpd20.pdb
REMARK  16 active torsions:
REMARK  status: ('A' for Active; 'I' for Inactive)
REMARK    1  A    between atoms: C_1  and  C_2
REMARK    2  A    between atoms: C_6  and  N_7
REMARK    3  A    between atoms: N_7  and  C_8
REMARK    4  A    between atoms: C_13  and  C_14
REMARK    5  A    between atoms: N_16  and  C_17
REMARK    6  A    between atoms: C_17  and  C_18
REMARK    7  A    between atoms: C_18  and  C_19
REMARK    8  A    between atoms: C_19  and  C_20
REMARK    9  A    between atoms: C_20  and  C_21
REMARK   10  A    between atoms: C_21  and  C_22
REMARK   11  A    between atoms: C_22  and  C_23
REMARK   12  A    between atoms: C_23  and  C_24
REMARK   13  A    between atoms: C_24  and  C_25
REMARK   14  A    between atoms: C_25  and  N_26
REMARK   15  A    between atoms: N_26  and  C_27
REMARK   16  A    between atoms: C_42  and  C_43
REMARK                            x       y       z     vdW  Elec       q    Type
REMARK                         _______ _______ _______ _____ _____    ______ ____
ROOT
ATOM      1  C   UNL A   1      41.658 -18.821 -33.722  0.00  0.00    -0.052 C 
ENDROOT
BRANCH   1   2
ATOM      2  C   UNL A   1      41.108 -19.932 -32.825  0.00  0.00    -0.037 C 
BRANCH   2   3
ATOM      3  C   UNL A   1      40.423 -21.063 -33.591  0.00  0.00    +0.012 C 
BRANCH   3   6
ATOM      4  C   UNL A   1      40.257 -20.982 -36.051  0.00  0.00    +0.246 C 
ATOM      5  O   UNL A   1      39.058 -20.716 -36.020  0.00  0.00    -0.270 OA
ATOM      6  N   UNL A   1      41.002 -21.218 -34.911  0.00  0.00    -0.311 N 
ATOM      7  H   UNL A   1      41.943 -21.496 -34.998  0.00  0.00    +0.000 HD
BRANCH   4  13
ATOM      8  C   UNL A   1      41.123 -19.819 -38.112  0.00  0.00    +0.044 A 
ATOM      9  C   UNL A   1      41.896 -19.868 -39.285  0.00  0.00    -0.040 A 
ATOM     10  C   UNL A   1      42.441 -21.069 -39.746  0.00  0.00    -0.060 A 
ATOM     11  C   UNL A   1      42.239 -22.244 -39.033  0.00  0.00    -0.061 A 
ATOM     12  C   UNL A   1      41.517 -22.216 -37.839  0.00  0.00    -0.048 A 
ATOM     13  C   UNL A   1      40.989 -21.007 -37.354  0.00  0.00    +0.058 A 
BRANCH   8  14
ATOM     14  N   UNL A   1      40.617 -18.575 -37.643  0.00  0.00    -0.314 N 
ATOM     15  H   UNL A   1      40.426 -18.524 -36.679  0.00  0.00    +0.000 HD
BRANCH  14  21
ATOM     16  C   UNL A   1      37.791 -16.111 -40.954  0.00  0.00    -0.039 C 
ATOM     17  C   UNL A   1      38.992 -16.217 -40.052  0.00  0.00    -0.046 A 
ATOM     18  C   UNL A   1      39.925 -15.170 -40.052  0.00  0.00    -0.058 A 
ATOM     19  C   UNL A   1      41.067 -15.237 -39.259  0.00  0.00    -0.060 A 
ATOM     20  C   UNL A   1      41.286 -16.350 -38.451  0.00  0.00    -0.040 A 
ATOM     21  C   UNL A   1      40.352 -17.394 -38.392  0.00  0.00    +0.035 A 
ATOM     22  C   UNL A   1      39.194 -17.333 -39.205  0.00  0.00    -0.026 A 
ATOM     23  C   UNL A   1      38.217 -18.484 -39.203  0.00  0.00    -0.038 C 
ENDBRANCH  14  21
ENDBRANCH   8  14
ENDBRANCH   4  13
ENDBRANCH   3   6
ENDBRANCH   2   3
ENDBRANCH   1   2
BRANCH   1  24
ATOM     24  C   UNL A   1      43.185 -18.724 -33.724  0.00  0.00    -0.053 C 
BRANCH  24  25
ATOM     25  C   UNL A   1      43.671 -17.760 -34.808  0.00  0.00    -0.053 C 
BRANCH  25  26
ATOM     26  C   UNL A   1      43.772 -18.448 -36.171  0.00  0.00    -0.053 C 
BRANCH  26  27
ATOM     27  C   UNL A   1      44.355 -19.857 -36.032  0.00  0.00    -0.052 C 
BRANCH  27  28
ATOM     28  C   UNL A   1      45.371 -20.201 -37.124  0.00  0.00    -0.037 C 
BRANCH  28  29
ATOM     29  C   UNL A   1      46.398 -19.088 -37.347  0.00  0.00    +0.009 C 
BRANCH  29  30
ATOM     30  N   UNL A   1      47.173 -19.280 -38.584  0.00  0.00    -0.343 N 
ATOM     31  H   UNL A   1      48.155 -19.341 -38.583  0.00  0.00    +0.000 HD
BRANCH  30  32
ATOM     32  C   UNL A   1      46.410 -19.374 -39.779  0.00  0.00    +0.041 A 
ATOM     33  C   UNL A   1      46.352 -20.593 -40.492  0.00  0.00    -0.005 A 
ATOM     34  C   UNL A   1      45.522 -20.649 -41.615  0.00  0.00    +0.047 A 
ATOM     35  N   UNL A   1      44.752 -19.614 -42.023  0.00  0.00    -0.251 NA
ATOM     36  C   UNL A   1      44.823 -18.452 -41.367  0.00  0.00    +0.074 A 
ATOM     37  C   UNL A   1      44.053 -17.398 -41.835  0.00  0.00    -0.017 A 
ATOM     38  C   UNL A   1      44.098 -16.145 -41.234  0.00  0.00    +0.043 A 
ATOM     39 CL   UNL A   1      43.128 -14.862 -41.848  0.00  0.00    -0.083 Cl
ATOM     40  C   UNL A   1      44.931 -15.918 -40.150  0.00  0.00    -0.043 A 
ATOM     41  C   UNL A   1      45.708 -16.968 -39.663  0.00  0.00    -0.049 A 
ATOM     42  C   UNL A   1      45.651 -18.261 -40.241  0.00  0.00    +0.022 A 
ATOM     43  C   UNL A   1      45.375 -21.905 -42.437  0.00  0.00    -0.010 C 
ATOM     44  C   UNL A   1      46.542 -22.870 -42.274  0.00  0.00    -0.047 C 
ATOM     45  C   UNL A   1      46.814 -23.092 -40.795  0.00  0.00    -0.049 C 
ATOM     46  C   UNL A   1      47.212 -21.780 -40.119  0.00  0.00    -0.024 C 
ENDBRANCH  30  32
ENDBRANCH  29  30
ENDBRANCH  28  29
ENDBRANCH  27  28
ENDBRANCH  26  27
ENDBRANCH  25  26
ENDBRANCH  24  25
ENDBRANCH   1  24
TORSDOF 14
ENDMDL
MODEL 9
REMARK VINA RESULT:    -6.352     20.097     23.489
REMARK INTER + INTRA:         -16.850
REMARK INTER:                 -10.755
REMARK INTRA:                  -6.095
REMARK UNBOUND:                -5.299
REMARK  Name = cpd20.pdb
REMARK  16 active torsions:
REMARK  status: ('A' for Active; 'I' for Inactive)
REMARK    1  A    between atoms: C_1  and  C_2
REMARK    2  A    between atoms: C_6  and  N_7
REMARK    3  A    between atoms: N_7  and  C_8
REMARK    4  A    between atoms: C_13  and  C_14
REMARK    5  A    between atoms: N_16  and  C_17
REMARK    6  A    between atoms: C_17  and  C_18
REMARK    7  A    between atoms: C_18  and  C_19
REMARK    8  A    between atoms: C_19  and  C_20
REMARK    9  A    between atoms: C_20  and  C_21
REMARK   10  A    between atoms: C_21  and  C_22
REMARK   11  A    between atoms: C_22  and  C_23
REMARK   12  A    between atoms: C_23  and  C_24
REMARK   13  A    between atoms: C_24  and  C_25
REMARK   14  A    between atoms: C_25  and  N_26
REMARK   15  A    between atoms: N_26  and  C_27
REMARK   16  A    between atoms: C_42  and  C_43
REMARK                            x       y       z     vdW  Elec       q    Type
REMARK                         _______ _______ _______ _____ _____    ______ ____
ROOT
ATOM      1  C   UNL A   1      40.825 -17.750 -33.440  0.00  0.00    -0.052 C 
ENDROOT
BRANCH   1   2
ATOM      2  C   UNL A   1      40.799 -17.198 -34.867  0.00  0.00    -0.037 C 
BRANCH   2   3
ATOM      3  C   UNL A   1      39.701 -17.798 -35.743  0.00  0.00    +0.012 C 
BRANCH   3   6
ATOM      4  C   UNL A   1      40.383 -18.527 -37.999  0.00  0.00    +0.246 C 
ATOM      5  O   UNL A   1      39.979 -17.490 -38.520  0.00  0.00    -0.270 OA
ATOM      6  N   UNL A   1      40.247 -18.790 -36.649  0.00  0.00    -0.311 N 
ATOM      7  H   UNL A   1      40.525 -19.667 -36.297  0.00  0.00    +0.000 HD
BRANCH   4  13
ATOM      8  C   UNL A   1      42.467 -19.344 -39.158  0.00  0.00    +0.044 A 
ATOM      9  C   UNL A   1      43.133 -20.371 -39.849  0.00  0.00    -0.040 A 
ATOM     10  C   UNL A   1      42.460 -21.518 -40.274  0.00  0.00    -0.060 A 
ATOM     11  C   UNL A   1      41.106 -21.672 -39.999  0.00  0.00    -0.061 A 
ATOM     12  C   UNL A   1      40.430 -20.692 -39.271  0.00  0.00    -0.048 A 
ATOM     13  C   UNL A   1      41.107 -19.547 -38.817  0.00  0.00    +0.058 A 
BRANCH   8  14
ATOM     14  N   UNL A   1      43.188 -18.207 -38.699  0.00  0.00    -0.314 N 
ATOM     15  H   UNL A   1      43.591 -18.285 -37.805  0.00  0.00    +0.000 HD
BRANCH  14  21
ATOM     16  C   UNL A   1      43.795 -13.246 -38.512  0.00  0.00    -0.039 C 
ATOM     17  C   UNL A   1      43.644 -14.537 -39.271  0.00  0.00    -0.046 A 
ATOM     18  C   UNL A   1      43.593 -14.490 -40.672  0.00  0.00    -0.058 A 
ATOM     19  C   UNL A   1      43.423 -15.654 -41.416  0.00  0.00    -0.060 A 
ATOM     20  C   UNL A   1      43.308 -16.880 -40.768  0.00  0.00    -0.040 A 
ATOM     21  C   UNL A   1      43.400 -16.970 -39.372  0.00  0.00    +0.035 A 
ATOM     22  C   UNL A   1      43.564 -15.787 -38.611  0.00  0.00    -0.026 A 
ATOM     23  C   UNL A   1      43.593 -15.864 -37.103  0.00  0.00    -0.038 C 
ENDBRANCH  14  21
ENDBRANCH   8  14
ENDBRANCH   4  13
ENDBRANCH   3   6
ENDBRANCH   2   3
ENDBRANCH   1   2
BRANCH   1  24
ATOM     24  C   UNL A   1      41.476 -19.129 -33.320  0.00  0.00    -0.053 C 
BRANCH  24  25
ATOM     25  C   UNL A   1      42.928 -19.011 -32.850  0.00  0.00    -0.053 C 
BRANCH  25  26
ATOM     26  C   UNL A   1      43.895 -18.897 -34.030  0.00  0.00    -0.053 C 
BRANCH  26  27
ATOM     27  C   UNL A   1      43.614 -19.980 -35.075  0.00  0.00    -0.052 C 
BRANCH  27  28
ATOM     28  C   UNL A   1      44.735 -20.128 -36.108  0.00  0.00    -0.037 C 
BRANCH  28  29
ATOM     29  C   UNL A   1      45.604 -18.872 -36.220  0.00  0.00    +0.009 C 
BRANCH  29  30
ATOM     30  N   UNL A   1      46.871 -19.130 -36.924  0.00  0.00    -0.343 N 
ATOM     31  H   UNL A   1      47.653 -19.518 -36.470  0.00  0.00    +0.000 HD
BRANCH  30  32
ATOM     32  C   UNL A   1      46.892 -18.781 -38.301  0.00  0.00    +0.041 A 
ATOM     33  C   UNL A   1      46.738 -19.779 -39.290  0.00  0.00    -0.005 A 
ATOM     34  C   UNL A   1      46.686 -19.368 -40.625  0.00  0.00    +0.047 A 
ATOM     35  N   UNL A   1      46.735 -18.071 -41.005  0.00  0.00    -0.251 NA
ATOM     36  C   UNL A   1      46.905 -17.126 -40.076  0.00  0.00    +0.074 A 
ATOM     37  C   UNL A   1      46.994 -15.809 -40.502  0.00  0.00    -0.017 A 
ATOM     38  C   UNL A   1      47.210 -14.769 -39.605  0.00  0.00    +0.043 A 
ATOM     39 CL   UNL A   1      47.316 -13.149 -40.176  0.00  0.00    -0.083 Cl
ATOM     40  C   UNL A   1      47.354 -15.032 -38.252  0.00  0.00    -0.043 A 
ATOM     41  C   UNL A   1      47.261 -16.349 -37.805  0.00  0.00    -0.049 A 
ATOM     42  C   UNL A   1      47.009 -17.419 -38.700  0.00  0.00    +0.022 A 
ATOM     43  C   UNL A   1      46.509 -20.350 -41.755  0.00  0.00    -0.010 C 
ATOM     44  C   UNL A   1      46.914 -21.771 -41.387  0.00  0.00    -0.047 C 
ATOM     45  C   UNL A   1      46.250 -22.164 -40.077  0.00  0.00    -0.049 C 
ATOM     46  C   UNL A   1      46.715 -21.252 -38.944  0.00  0.00    -0.024 C 
ENDBRANCH  30  32
ENDBRANCH  29  30
ENDBRANCH  28  29
ENDBRANCH  27  28
ENDBRANCH  26  27
ENDBRANCH  25  26
ENDBRANCH  24  25
ENDBRANCH   1  24
TORSDOF 14
ENDMDL
MODEL 10
REMARK VINA RESULT:    -6.342     18.583     22.119
REMARK INTER + INTRA:         -16.832
REMARK INTER:                 -11.051
REMARK INTRA:                  -5.781
REMARK UNBOUND:                -5.299
REMARK  Name = cpd20.pdb
REMARK  16 active torsions:
REMARK  status: ('A' for Active; 'I' for Inactive)
REMARK    1  A    between atoms: C_1  and  C_2
REMARK    2  A    between atoms: C_6  and  N_7
REMARK    3  A    between atoms: N_7  and  C_8
REMARK    4  A    between atoms: C_13  and  C_14
REMARK    5  A    between atoms: N_16  and  C_17
REMARK    6  A    between atoms: C_17  and  C_18
REMARK    7  A    between atoms: C_18  and  C_19
REMARK    8  A    between atoms: C_19  and  C_20
REMARK    9  A    between atoms: C_20  and  C_21
REMARK   10  A    between atoms: C_21  and  C_22
REMARK   11  A    between atoms: C_22  and  C_23
REMARK   12  A    between atoms: C_23  and  C_24
REMARK   13  A    between atoms: C_24  and  C_25
REMARK   14  A    between atoms: C_25  and  N_26
REMARK   15  A    between atoms: N_26  and  C_27
REMARK   16  A    between atoms: C_42  and  C_43
REMARK                            x       y       z     vdW  Elec       q    Type
REMARK                         _______ _______ _______ _____ _____    ______ ____
ROOT
ATOM      1  C   UNL A   1      42.617 -19.688 -38.817  0.00  0.00    -0.052 C 
ENDROOT
BRANCH   1   2
ATOM      2  C   UNL A   1      42.659 -20.937 -39.701  0.00  0.00    -0.037 C 
BRANCH   2   3
ATOM      3  C   UNL A   1      41.879 -22.122 -39.134  0.00  0.00    +0.012 C 
BRANCH   3   6
ATOM      4  C   UNL A   1      40.302 -21.811 -37.263  0.00  0.00    +0.246 C 
ATOM      5  O   UNL A   1      39.329 -21.773 -38.012  0.00  0.00    -0.270 OA
ATOM      6  N   UNL A   1      41.599 -21.930 -37.724  0.00  0.00    -0.311 N 
ATOM      7  H   UNL A   1      42.346 -21.885 -37.084  0.00  0.00    +0.000 HD
BRANCH   4  13
ATOM      8  C   UNL A   1      39.609 -20.619 -35.153  0.00  0.00    +0.044 A 
ATOM      9  C   UNL A   1      39.360 -20.670 -33.770  0.00  0.00    -0.040 A 
ATOM     10  C   UNL A   1      39.681 -21.799 -33.014  0.00  0.00    -0.060 A 
ATOM     11  C   UNL A   1      40.245 -22.911 -33.630  0.00  0.00    -0.061 A 
ATOM     12  C   UNL A   1      40.457 -22.907 -35.009  0.00  0.00    -0.048 A 
ATOM     13  C   UNL A   1      40.111 -21.784 -35.781  0.00  0.00    +0.058 A 
BRANCH   8  14
ATOM     14  N   UNL A   1      39.231 -19.472 -35.904  0.00  0.00    -0.314 N 
ATOM     15  H   UNL A   1      38.301 -19.457 -36.228  0.00  0.00    +0.000 HD
BRANCH  14  21
ATOM     16  C   UNL A   1      40.457 -15.893 -39.177  0.00  0.00    -0.039 C 
ATOM     17  C   UNL A   1      40.653 -16.629 -37.878  0.00  0.00    -0.046 A 
ATOM     18  C   UNL A   1      41.726 -16.258 -37.053  0.00  0.00    -0.058 A 
ATOM     19  C   UNL A   1      41.967 -16.929 -35.858  0.00  0.00    -0.060 A 
ATOM     20  C   UNL A   1      41.135 -17.975 -35.470  0.00  0.00    -0.040 A 
ATOM     21  C   UNL A   1      40.027 -18.343 -36.247  0.00  0.00    +0.035 A 
ATOM     22  C   UNL A   1      39.784 -17.668 -37.469  0.00  0.00    -0.026 A 
ATOM     23  C   UNL A   1      38.637 -18.103 -38.349  0.00  0.00    -0.038 C 
ENDBRANCH  14  21
ENDBRANCH   8  14
ENDBRANCH   4  13
ENDBRANCH   3   6
ENDBRANCH   2   3
ENDBRANCH   1   2
BRANCH   1  24
ATOM     24  C   UNL A   1      43.134 -18.423 -39.504  0.00  0.00    -0.053 C 
BRANCH  24  25
ATOM     25  C   UNL A   1      43.573 -18.720 -40.940  0.00  0.00    -0.053 C 
BRANCH  25  26
ATOM     26  C   UNL A   1      44.160 -17.479 -41.617  0.00  0.00    -0.053 C 
BRANCH  26  27
ATOM     27  C   UNL A   1      44.134 -16.275 -40.673  0.00  0.00    -0.052 C 
BRANCH  27  28
ATOM     28  C   UNL A   1      45.508 -15.625 -40.484  0.00  0.00    -0.037 C 
BRANCH  28  29
ATOM     29  C   UNL A   1      46.661 -16.587 -40.781  0.00  0.00    +0.009 C 
BRANCH  29  30
ATOM     30  N   UNL A   1      47.315 -17.073 -39.555  0.00  0.00    -0.343 N 
ATOM     31  H   UNL A   1      48.059 -16.587 -39.130  0.00  0.00    +0.000 HD
BRANCH  30  32
ATOM     32  C   UNL A   1      46.805 -18.287 -39.024  0.00  0.00    +0.041 A 
ATOM     33  C   UNL A   1      46.857 -19.475 -39.788  0.00  0.00    -0.005 A 
ATOM     34  C   UNL A   1      46.413 -20.656 -39.185  0.00  0.00    +0.047 A 
ATOM     35  N   UNL A   1      45.978 -20.718 -37.905  0.00  0.00    -0.251 NA
ATOM     36  C   UNL A   1      45.904 -19.593 -37.187  0.00  0.00    +0.074 A 
ATOM     37  C   UNL A   1      45.414 -19.685 -35.893  0.00  0.00    -0.017 A 
ATOM     38  C   UNL A   1      45.267 -18.557 -35.092  0.00  0.00    +0.043 A 
ATOM     39 CL   UNL A   1      44.653 -18.714 -33.492  0.00  0.00    -0.083 Cl
ATOM     40  C   UNL A   1      45.600 -17.304 -35.582  0.00  0.00    -0.043 A 
ATOM     41  C   UNL A   1      46.099 -17.195 -36.878  0.00  0.00    -0.049 A 
ATOM     42  C   UNL A   1      46.287 -18.336 -37.698  0.00  0.00    +0.022 A 
ATOM     43  C   UNL A   1      46.441 -21.979 -39.906  0.00  0.00    -0.010 C 
ATOM     44  C   UNL A   1      46.476 -21.838 -41.422  0.00  0.00    -0.047 C 
ATOM     45  C   UNL A   1      47.574 -20.863 -41.815  0.00  0.00    -0.049 C 
ATOM     46  C   UNL A   1      47.294 -19.477 -41.236  0.00  0.00    -0.024 C 
ENDBRANCH  30  32
ENDBRANCH  29  30
ENDBRANCH  28  29
ENDBRANCH  27  28
ENDBRANCH  26  27
ENDBRANCH  25  26
ENDBRANCH  24  25
ENDBRANCH   1  24
TORSDOF 14
ENDMDL
MODEL 11
REMARK VINA RESULT:    -6.319     17.601     21.225
REMARK INTER + INTRA:         -16.790
REMARK INTER:                 -11.938
REMARK INTRA:                  -4.852
REMARK UNBOUND:                -5.299
REMARK  Name = cpd20.pdb
REMARK  16 active torsions:
REMARK  status: ('A' for Active; 'I' for Inactive)
REMARK    1  A    between atoms: C_1  and  C_2
REMARK    2  A    between atoms: C_6  and  N_7
REMARK    3  A    between atoms: N_7  and  C_8
REMARK    4  A    between atoms: C_13  and  C_14
REMARK    5  A    between atoms: N_16  and  C_17
REMARK    6  A    between atoms: C_17  and  C_18
REMARK    7  A    between atoms: C_18  and  C_19
REMARK    8  A    between atoms: C_19  and  C_20
REMARK    9  A    between atoms: C_20  and  C_21
REMARK   10  A    between atoms: C_21  and  C_22
REMARK   11  A    between atoms: C_22  and  C_23
REMARK   12  A    between atoms: C_23  and  C_24
REMARK   13  A    between atoms: C_24  and  C_25
REMARK   14  A    between atoms: C_25  and  N_26
REMARK   15  A    between atoms: N_26  and  C_27
REMARK   16  A    between atoms: C_42  and  C_43
REMARK                            x       y       z     vdW  Elec       q    Type
REMARK                         _______ _______ _______ _____ _____    ______ ____
ROOT
ATOM      1  C   UNL A   1      40.782 -21.293 -38.032  0.00  0.00    -0.052 C 
ENDROOT
BRANCH   1   2
ATOM      2  C   UNL A   1      40.716 -22.279 -39.200  0.00  0.00    -0.037 C 
BRANCH   2   3
ATOM      3  C   UNL A   1      41.271 -21.724 -40.510  0.00  0.00    +0.012 C 
BRANCH   3   6
ATOM      4  C   UNL A   1      43.633 -21.012 -40.488  0.00  0.00    +0.246 C 
ATOM      5  O   UNL A   1      43.336 -19.830 -40.334  0.00  0.00    -0.270 OA
ATOM      6  N   UNL A   1      42.688 -22.009 -40.633  0.00  0.00    -0.311 N 
ATOM      7  H   UNL A   1      42.982 -22.930 -40.823  0.00  0.00    +0.000 HD
BRANCH   4  13
ATOM      8  C   UNL A   1      45.861 -21.183 -39.322  0.00  0.00    +0.044 A 
ATOM      9  C   UNL A   1      47.176 -21.680 -39.310  0.00  0.00    -0.040 A 
ATOM     10  C   UNL A   1      47.721 -22.324 -40.423  0.00  0.00    -0.060 A 
ATOM     11  C   UNL A   1      46.955 -22.499 -41.569  0.00  0.00    -0.061 A 
ATOM     12  C   UNL A   1      45.630 -22.060 -41.592  0.00  0.00    -0.048 A 
ATOM     13  C   UNL A   1      45.066 -21.436 -40.466  0.00  0.00    +0.058 A 
BRANCH   8  14
ATOM     14  N   UNL A   1      45.319 -20.571 -38.158  0.00  0.00    -0.314 N 
ATOM     15  H   UNL A   1      44.359 -20.724 -37.999  0.00  0.00    +0.000 HD
BRANCH  14  21
ATOM     16  C   UNL A   1      47.439 -16.220 -36.899  0.00  0.00    -0.039 C 
ATOM     17  C   UNL A   1      47.068 -17.649 -36.608  0.00  0.00    -0.046 A 
ATOM     18  C   UNL A   1      47.505 -18.224 -35.405  0.00  0.00    -0.058 A 
ATOM     19  C   UNL A   1      47.214 -19.551 -35.105  0.00  0.00    -0.060 A 
ATOM     20  C   UNL A   1      46.478 -20.320 -36.003  0.00  0.00    -0.040 A 
ATOM     21  C   UNL A   1      45.988 -19.766 -37.194  0.00  0.00    +0.035 A 
ATOM     22  C   UNL A   1      46.289 -18.417 -37.506  0.00  0.00    -0.026 A 
ATOM     23  C   UNL A   1      45.827 -17.831 -38.819  0.00  0.00    -0.038 C 
ENDBRANCH  14  21
ENDBRANCH   8  14
ENDBRANCH   4  13
ENDBRANCH   3   6
ENDBRANCH   2   3
ENDBRANCH   1   2
BRANCH   1  24
ATOM     24  C   UNL A   1      40.079 -21.783 -36.764  0.00  0.00    -0.053 C 
BRANCH  24  25
ATOM     25  C   UNL A   1      41.093 -22.093 -35.661  0.00  0.00    -0.053 C 
BRANCH  25  26
ATOM     26  C   UNL A   1      40.407 -22.613 -34.396  0.00  0.00    -0.053 C 
BRANCH  26  27
ATOM     27  C   UNL A   1      38.886 -22.638 -34.567  0.00  0.00    -0.052 C 
BRANCH  27  28
ATOM     28  C   UNL A   1      38.153 -21.705 -33.599  0.00  0.00    -0.037 C 
BRANCH  28  29
ATOM     29  C   UNL A   1      39.111 -20.898 -32.718  0.00  0.00    +0.009 C 
BRANCH  29  30
ATOM     30  N   UNL A   1      38.988 -19.448 -32.940  0.00  0.00    -0.343 N 
ATOM     31  H   UNL A   1      38.473 -18.867 -32.335  0.00  0.00    +0.000 HD
BRANCH  30  32
ATOM     32  C   UNL A   1      39.661 -18.941 -34.084  0.00  0.00    +0.041 A 
ATOM     33  C   UNL A   1      41.069 -18.813 -34.083  0.00  0.00    -0.005 A 
ATOM     34  C   UNL A   1      41.683 -18.385 -35.264  0.00  0.00    +0.047 A 
ATOM     35  N   UNL A   1      41.003 -18.130 -36.405  0.00  0.00    -0.251 NA
ATOM     36  C   UNL A   1      39.669 -18.226 -36.403  0.00  0.00    +0.074 A 
ATOM     37  C   UNL A   1      38.998 -17.917 -37.577  0.00  0.00    -0.017 A 
ATOM     38  C   UNL A   1      37.610 -17.953 -37.650  0.00  0.00    +0.043 A 
ATOM     39 CL   UNL A   1      36.817 -17.560 -39.125  0.00  0.00    -0.083 Cl
ATOM     40  C   UNL A   1      36.861 -18.292 -36.534  0.00  0.00    -0.043 A 
ATOM     41  C   UNL A   1      37.519 -18.611 -35.348  0.00  0.00    -0.049 A 
ATOM     42  C   UNL A   1      38.934 -18.612 -35.264  0.00  0.00    +0.022 A 
ATOM     43  C   UNL A   1      43.178 -18.230 -35.374  0.00  0.00    -0.010 C 
ATOM     44  C   UNL A   1      43.867 -18.062 -34.025  0.00  0.00    -0.047 C 
ATOM     45  C   UNL A   1      43.397 -19.153 -33.077  0.00  0.00    -0.049 C 
ATOM     46  C   UNL A   1      41.892 -19.043 -32.835  0.00  0.00    -0.024 C 
ENDBRANCH  30  32
ENDBRANCH  29  30
ENDBRANCH  28  29
ENDBRANCH  27  28
ENDBRANCH  26  27
ENDBRANCH  25  26
ENDBRANCH  24  25
ENDBRANCH   1  24
TORSDOF 14
ENDMDL
MODEL 12
REMARK VINA RESULT:    -6.301     18.136     21.604
REMARK INTER + INTRA:         -16.758
REMARK INTER:                 -12.320
REMARK INTRA:                  -4.438
REMARK UNBOUND:                -5.299
REMARK  Name = cpd20.pdb
REMARK  16 active torsions:
REMARK  status: ('A' for Active; 'I' for Inactive)
REMARK    1  A    between atoms: C_1  and  C_2
REMARK    2  A    between atoms: C_6  and  N_7
REMARK    3  A    between atoms: N_7  and  C_8
REMARK    4  A    between atoms: C_13  and  C_14
REMARK    5  A    between atoms: N_16  and  C_17
REMARK    6  A    between atoms: C_17  and  C_18
REMARK    7  A    between atoms: C_18  and  C_19
REMARK    8  A    between atoms: C_19  and  C_20
REMARK    9  A    between atoms: C_20  and  C_21
REMARK   10  A    between atoms: C_21  and  C_22
REMARK   11  A    between atoms: C_22  and  C_23
REMARK   12  A    between atoms: C_23  and  C_24
REMARK   13  A    between atoms: C_24  and  C_25
REMARK   14  A    between atoms: C_25  and  N_26
REMARK   15  A    between atoms: N_26  and  C_27
REMARK   16  A    between atoms: C_42  and  C_43
REMARK                            x       y       z     vdW  Elec       q    Type
REMARK                         _______ _______ _______ _____ _____    ______ ____
ROOT
ATOM      1  C   UNL A   1      42.145 -16.643 -37.922  0.00  0.00    -0.052 C 
ENDROOT
BRANCH   1   2
ATOM      2  C   UNL A   1      43.271 -17.351 -38.678  0.00  0.00    -0.037 C 
BRANCH   2   3
ATOM      3  C   UNL A   1      42.811 -18.570 -39.475  0.00  0.00    +0.012 C 
BRANCH   3   6
ATOM      4  C   UNL A   1      44.216 -20.598 -39.519  0.00  0.00    +0.246 C 
ATOM      5  O   UNL A   1      43.574 -21.134 -38.620  0.00  0.00    -0.270 OA
ATOM      6  N   UNL A   1      43.948 -19.321 -39.974  0.00  0.00    -0.311 N 
ATOM      7  H   UNL A   1      44.539 -18.914 -40.648  0.00  0.00    +0.000 HD
BRANCH   4  13
ATOM      8  C   UNL A   1      46.566 -21.508 -39.587  0.00  0.00    +0.044 A 
ATOM      9  C   UNL A   1      47.531 -22.297 -40.236  0.00  0.00    -0.040 A 
ATOM     10  C   UNL A   1      47.299 -22.833 -41.505  0.00  0.00    -0.060 A 
ATOM     11  C   UNL A   1      46.086 -22.605 -42.144  0.00  0.00    -0.061 A 
ATOM     12  C   UNL A   1      45.090 -21.867 -41.502  0.00  0.00    -0.048 A 
ATOM     13  C   UNL A   1      45.307 -21.347 -40.214  0.00  0.00    +0.058 A 
BRANCH   8  14
ATOM     14  N   UNL A   1      46.814 -21.011 -38.277  0.00  0.00    -0.314 N 
ATOM     15  H   UNL A   1      47.012 -21.688 -37.590  0.00  0.00    +0.000 HD
BRANCH  14  21
ATOM     16  C   UNL A   1      45.642 -17.615 -34.797  0.00  0.00    -0.039 C 
ATOM     17  C   UNL A   1      46.188 -17.999 -36.146  0.00  0.00    -0.046 A 
ATOM     18  C   UNL A   1      46.588 -16.980 -37.023  0.00  0.00    -0.058 A 
ATOM     19  C   UNL A   1      47.070 -17.285 -38.293  0.00  0.00    -0.060 A 
ATOM     20  C   UNL A   1      47.162 -18.613 -38.700  0.00  0.00    -0.040 A 
ATOM     21  C   UNL A   1      46.813 -19.659 -37.834  0.00  0.00    +0.035 A 
ATOM     22  C   UNL A   1      46.315 -19.352 -36.544  0.00  0.00    -0.026 A 
ATOM     23  C   UNL A   1      45.869 -20.467 -35.629  0.00  0.00    -0.038 C 
ENDBRANCH  14  21
ENDBRANCH   8  14
ENDBRANCH   4  13
ENDBRANCH   3   6
ENDBRANCH   2   3
ENDBRANCH   1   2
BRANCH   1  24
ATOM     24  C   UNL A   1      41.873 -17.219 -36.531  0.00  0.00    -0.053 C 
BRANCH  24  25
ATOM     25  C   UNL A   1      40.464 -17.809 -36.448  0.00  0.00    -0.053 C 
BRANCH  25  26
ATOM     26  C   UNL A   1      40.497 -19.335 -36.341  0.00  0.00    -0.053 C 
BRANCH  26  27
ATOM     27  C   UNL A   1      41.921 -19.836 -36.089  0.00  0.00    -0.052 C 
BRANCH  27  28
ATOM     28  C   UNL A   1      41.994 -20.946 -35.035  0.00  0.00    -0.037 C 
BRANCH  28  29
ATOM     29  C   UNL A   1      42.740 -20.511 -33.771  0.00  0.00    +0.009 C 
BRANCH  29  30
ATOM     30  N   UNL A   1      41.844 -20.380 -32.610  0.00  0.00    -0.343 N 
ATOM     31  H   UNL A   1      41.927 -20.956 -31.817  0.00  0.00    +0.000 HD
BRANCH  30  32
ATOM     32  C   UNL A   1      40.854 -19.367 -32.709  0.00  0.00    +0.041 A 
ATOM     33  C   UNL A   1      39.483 -19.711 -32.721  0.00  0.00    -0.005 A 
ATOM     34  C   UNL A   1      38.551 -18.669 -32.738  0.00  0.00    +0.047 A 
ATOM     35  N   UNL A   1      38.898 -17.362 -32.705  0.00  0.00    -0.251 NA
ATOM     36  C   UNL A   1      40.193 -17.031 -32.718  0.00  0.00    +0.074 A 
ATOM     37  C   UNL A   1      40.515 -15.682 -32.726  0.00  0.00    -0.017 A 
ATOM     38  C   UNL A   1      41.837 -15.253 -32.779  0.00  0.00    +0.043 A 
ATOM     39 CL   UNL A   1      42.194 -13.569 -32.790  0.00  0.00    -0.083 Cl
ATOM     40  C   UNL A   1      42.870 -16.175 -32.839  0.00  0.00    -0.043 A 
ATOM     41  C   UNL A   1      42.564 -17.535 -32.826  0.00  0.00    -0.049 A 
ATOM     42  C   UNL A   1      41.225 -17.992 -32.738  0.00  0.00    +0.022 A 
ATOM     43  C   UNL A   1      37.066 -18.926 -32.737  0.00  0.00    -0.010 C 
ATOM     44  C   UNL A   1      36.696 -20.318 -33.234  0.00  0.00    -0.047 C 
ATOM     45  C   UNL A   1      37.534 -21.356 -32.505  0.00  0.00    -0.049 C 
ATOM     46  C   UNL A   1      39.019 -21.149 -32.798  0.00  0.00    -0.024 C 
ENDBRANCH  30  32
ENDBRANCH  29  30
ENDBRANCH  28  29
ENDBRANCH  27  28
ENDBRANCH  26  27
ENDBRANCH  25  26
ENDBRANCH  24  25
ENDBRANCH   1  24
TORSDOF 14
ENDMDL
MODEL 13
REMARK VINA RESULT:    -6.252     18.910     22.649
REMARK INTER + INTRA:         -16.668
REMARK INTER:                 -12.743
REMARK INTRA:                  -3.924
REMARK UNBOUND:                -5.299
REMARK  Name = cpd20.pdb
REMARK  16 active torsions:
REMARK  status: ('A' for Active; 'I' for Inactive)
REMARK    1  A    between atoms: C_1  and  C_2
REMARK    2  A    between atoms: C_6  and  N_7
REMARK    3  A    between atoms: N_7  and  C_8
REMARK    4  A    between atoms: C_13  and  C_14
REMARK    5  A    between atoms: N_16  and  C_17
REMARK    6  A    between atoms: C_17  and  C_18
REMARK    7  A    between atoms: C_18  and  C_19
REMARK    8  A    between atoms: C_19  and  C_20
REMARK    9  A    between atoms: C_20  and  C_21
REMARK   10  A    between atoms: C_21  and  C_22
REMARK   11  A    between atoms: C_22  and  C_23
REMARK   12  A    between atoms: C_23  and  C_24
REMARK   13  A    between atoms: C_24  and  C_25
REMARK   14  A    between atoms: C_25  and  N_26
REMARK   15  A    between atoms: N_26  and  C_27
REMARK   16  A    between atoms: C_42  and  C_43
REMARK                            x       y       z     vdW  Elec       q    Type
REMARK                         _______ _______ _______ _____ _____    ______ ____
ROOT
ATOM      1  C   UNL A   1      46.806 -16.738 -36.758  0.00  0.00    -0.052 C 
ENDROOT
BRANCH   1   2
ATOM      2  C   UNL A   1      45.455 -16.455 -36.100  0.00  0.00    -0.037 C 
BRANCH   2   3
ATOM      3  C   UNL A   1      45.218 -17.239 -34.811  0.00  0.00    +0.012 C 
BRANCH   3   6
ATOM      4  C   UNL A   1      43.331 -17.935 -33.381  0.00  0.00    +0.246 C 
ATOM      5  O   UNL A   1      43.987 -18.827 -32.849  0.00  0.00    -0.270 OA
ATOM      6  N   UNL A   1      43.834 -17.134 -34.389  0.00  0.00    -0.311 N 
ATOM      7  H   UNL A   1      43.242 -16.481 -34.828  0.00  0.00    +0.000 HD
BRANCH   4  13
ATOM      8  C   UNL A   1      41.008 -18.685 -32.755  0.00  0.00    +0.044 A 
ATOM      9  C   UNL A   1      39.746 -18.371 -32.220  0.00  0.00    -0.040 A 
ATOM     10  C   UNL A   1      39.387 -17.052 -31.933  0.00  0.00    -0.060 A 
ATOM     11  C   UNL A   1      40.290 -16.020 -32.158  0.00  0.00    -0.061 A 
ATOM     12  C   UNL A   1      41.567 -16.308 -32.641  0.00  0.00    -0.048 A 
ATOM     13  C   UNL A   1      41.946 -17.636 -32.907  0.00  0.00    +0.058 A 
BRANCH   8  14
ATOM     14  N   UNL A   1      41.362 -20.042 -32.997  0.00  0.00    -0.314 N 
ATOM     15  H   UNL A   1      41.997 -20.441 -32.360  0.00  0.00    +0.000 HD
BRANCH  14  21
ATOM     16  C   UNL A   1      38.511 -23.854 -34.531  0.00  0.00    -0.039 C 
ATOM     17  C   UNL A   1      39.552 -22.794 -34.771  0.00  0.00    -0.046 A 
ATOM     18  C   UNL A   1      40.172 -22.737 -36.028  0.00  0.00    -0.058 A 
ATOM     19  C   UNL A   1      41.163 -21.795 -36.289  0.00  0.00    -0.060 A 
ATOM     20  C   UNL A   1      41.543 -20.895 -35.297  0.00  0.00    -0.040 A 
ATOM     21  C   UNL A   1      40.913 -20.895 -34.044  0.00  0.00    +0.035 A 
ATOM     22  C   UNL A   1      39.910 -21.857 -33.773  0.00  0.00    -0.026 A 
ATOM     23  C   UNL A   1      39.276 -21.912 -32.404  0.00  0.00    -0.038 C 
ENDBRANCH  14  21
ENDBRANCH   8  14
ENDBRANCH   4  13
ENDBRANCH   3   6
ENDBRANCH   2   3
ENDBRANCH   1   2
BRANCH   1  24
ATOM     24  C   UNL A   1      47.336 -18.151 -36.508  0.00  0.00    -0.053 C 
BRANCH  24  25
ATOM     25  C   UNL A   1      47.045 -19.065 -37.700  0.00  0.00    -0.053 C 
BRANCH  25  26
ATOM     26  C   UNL A   1      46.213 -20.281 -37.288  0.00  0.00    -0.053 C 
BRANCH  26  27
ATOM     27  C   UNL A   1      44.716 -19.974 -37.374  0.00  0.00    -0.052 C 
BRANCH  27  28
ATOM     28  C   UNL A   1      43.974 -20.860 -38.380  0.00  0.00    -0.037 C 
BRANCH  28  29
ATOM     29  C   UNL A   1      43.039 -20.061 -39.292  0.00  0.00    +0.009 C 
BRANCH  29  30
ATOM     30  N   UNL A   1      43.542 -19.980 -40.674  0.00  0.00    -0.343 N 
ATOM     31  H   UNL A   1      42.997 -20.256 -41.446  0.00  0.00    +0.000 HD
BRANCH  30  32
ATOM     32  C   UNL A   1      44.861 -19.476 -40.820  0.00  0.00    +0.041 A 
ATOM     33  C   UNL A   1      45.902 -20.325 -41.262  0.00  0.00    -0.005 A 
ATOM     34  C   UNL A   1      47.163 -19.756 -41.464  0.00  0.00    +0.047 A 
ATOM     35  N   UNL A   1      47.419 -18.438 -41.297  0.00  0.00    -0.251 NA
ATOM     36  C   UNL A   1      46.444 -17.636 -40.856  0.00  0.00    +0.074 A 
ATOM     37  C   UNL A   1      46.750 -16.298 -40.655  0.00  0.00    -0.017 A 
ATOM     38  C   UNL A   1      45.806 -15.405 -40.162  0.00  0.00    +0.043 A 
ATOM     39 CL   UNL A   1      46.227 -13.754 -39.924  0.00  0.00    -0.083 Cl
ATOM     40  C   UNL A   1      44.528 -15.842 -39.846  0.00  0.00    -0.043 A 
ATOM     41  C   UNL A   1      44.203 -17.182 -40.048  0.00  0.00    -0.049 A 
ATOM     42  C   UNL A   1      45.141 -18.100 -40.581  0.00  0.00    +0.022 A 
ATOM     43  C   UNL A   1      48.336 -20.569 -41.948  0.00  0.00    -0.010 C 
ATOM     44  C   UNL A   1      48.182 -22.062 -41.689  0.00  0.00    -0.047 C 
ATOM     45  C   UNL A   1      46.823 -22.525 -42.189  0.00  0.00    -0.049 C 
ATOM     46  C   UNL A   1      45.702 -21.815 -41.432  0.00  0.00    -0.024 C 
ENDBRANCH  30  32
ENDBRANCH  29  30
ENDBRANCH  28  29
ENDBRANCH  27  28
ENDBRANCH  26  27
ENDBRANCH  25  26
ENDBRANCH  24  25
ENDBRANCH   1  24
TORSDOF 14
ENDMDL
MODEL 14
REMARK VINA RESULT:    -6.212     18.769     22.395
REMARK INTER + INTRA:         -16.596
REMARK INTER:                 -11.094
REMARK INTRA:                  -5.502
REMARK UNBOUND:                -5.299
REMARK  Name = cpd20.pdb
REMARK  16 active torsions:
REMARK  status: ('A' for Active; 'I' for Inactive)
REMARK    1  A    between atoms: C_1  and  C_2
REMARK    2  A    between atoms: C_6  and  N_7
REMARK    3  A    between atoms: N_7  and  C_8
REMARK    4  A    between atoms: C_13  and  C_14
REMARK    5  A    between atoms: N_16  and  C_17
REMARK    6  A    between atoms: C_17  and  C_18
REMARK    7  A    between atoms: C_18  and  C_19
REMARK    8  A    between atoms: C_19  and  C_20
REMARK    9  A    between atoms: C_20  and  C_21
REMARK   10  A    between atoms: C_21  and  C_22
REMARK   11  A    between atoms: C_22  and  C_23
REMARK   12  A    between atoms: C_23  and  C_24
REMARK   13  A    between atoms: C_24  and  C_25
REMARK   14  A    between atoms: C_25  and  N_26
REMARK   15  A    between atoms: N_26  and  C_27
REMARK   16  A    between atoms: C_42  and  C_43
REMARK                            x       y       z     vdW  Elec       q    Type
REMARK                         _______ _______ _______ _____ _____    ______ ____
ROOT
ATOM      1  C   UNL A   1      43.302 -17.550 -35.091  0.00  0.00    -0.052 C 
ENDROOT
BRANCH   1   2
ATOM      2  C   UNL A   1      44.293 -18.706 -34.938  0.00  0.00    -0.037 C 
BRANCH   2   3
ATOM      3  C   UNL A   1      43.766 -19.866 -34.095  0.00  0.00    +0.012 C 
BRANCH   3   6
ATOM      4  C   UNL A   1      41.512 -20.590 -34.790  0.00  0.00    +0.246 C 
ATOM      5  O   UNL A   1      41.953 -21.301 -35.688  0.00  0.00    -0.270 OA
ATOM      6  N   UNL A   1      42.320 -19.810 -33.985  0.00  0.00    -0.311 N 
ATOM      7  H   UNL A   1      41.907 -19.205 -33.326  0.00  0.00    +0.000 HD
BRANCH   4  13
ATOM      8  C   UNL A   1      39.143 -19.958 -35.377  0.00  0.00    +0.044 A 
ATOM      9  C   UNL A   1      37.769 -20.056 -35.099  0.00  0.00    -0.040 A 
ATOM     10  C   UNL A   1      37.305 -20.668 -33.932  0.00  0.00    -0.060 A 
ATOM     11  C   UNL A   1      38.208 -21.212 -33.026  0.00  0.00    -0.061 A 
ATOM     12  C   UNL A   1      39.575 -21.174 -33.301  0.00  0.00    -0.048 A 
ATOM     13  C   UNL A   1      40.048 -20.584 -34.486  0.00  0.00    +0.058 A 
BRANCH   8  14
ATOM     14  N   UNL A   1      39.585 -19.368 -36.594  0.00  0.00    -0.314 N 
ATOM     15  H   UNL A   1      40.178 -19.922 -37.151  0.00  0.00    +0.000 HD
BRANCH  14  21
ATOM     16  C   UNL A   1      38.473 -16.428 -40.485  0.00  0.00    -0.039 C 
ATOM     17  C   UNL A   1      38.784 -16.641 -39.028  0.00  0.00    -0.046 A 
ATOM     18  C   UNL A   1      38.887 -15.518 -38.194  0.00  0.00    -0.058 A 
ATOM     19  C   UNL A   1      39.203 -15.661 -36.846  0.00  0.00    -0.060 A 
ATOM     20  C   UNL A   1      39.415 -16.929 -36.314  0.00  0.00    -0.040 A 
ATOM     21  C   UNL A   1      39.276 -18.077 -37.108  0.00  0.00    +0.035 A 
ATOM     22  C   UNL A   1      38.963 -17.934 -38.482  0.00  0.00    -0.026 A 
ATOM     23  C   UNL A   1      38.881 -19.158 -39.362  0.00  0.00    -0.038 C 
ENDBRANCH  14  21
ENDBRANCH   8  14
ENDBRANCH   4  13
ENDBRANCH   3   6
ENDBRANCH   2   3
ENDBRANCH   1   2
BRANCH   1  24
ATOM     24  C   UNL A   1      43.030 -17.154 -36.543  0.00  0.00    -0.053 C 
BRANCH  24  25
ATOM     25  C   UNL A   1      43.033 -18.382 -37.457  0.00  0.00    -0.053 C 
BRANCH  25  26
ATOM     26  C   UNL A   1      42.456 -18.059 -38.836  0.00  0.00    -0.053 C 
BRANCH  26  27
ATOM     27  C   UNL A   1      42.379 -16.546 -39.058  0.00  0.00    -0.052 C 
BRANCH  27  28
ATOM     28  C   UNL A   1      43.191 -16.070 -40.266  0.00  0.00    -0.037 C 
BRANCH  28  29
ATOM     29  C   UNL A   1      44.632 -15.705 -39.902  0.00  0.00    +0.009 C 
BRANCH  29  30
ATOM     30  N   UNL A   1      45.616 -16.551 -40.596  0.00  0.00    -0.343 N 
ATOM     31  H   UNL A   1      46.142 -16.224 -41.361  0.00  0.00    +0.000 HD
BRANCH  30  32
ATOM     32  C   UNL A   1      45.758 -17.871 -40.091  0.00  0.00    +0.041 A 
ATOM     33  C   UNL A   1      45.324 -18.977 -40.856  0.00  0.00    -0.005 A 
ATOM     34  C   UNL A   1      45.562 -20.256 -40.343  0.00  0.00    +0.047 A 
ATOM     35  N   UNL A   1      46.216 -20.480 -39.181  0.00  0.00    -0.251 NA
ATOM     36  C   UNL A   1      46.607 -19.437 -38.442  0.00  0.00    +0.074 A 
ATOM     37  C   UNL A   1      47.237 -19.701 -37.235  0.00  0.00    -0.017 A 
ATOM     38  C   UNL A   1      47.640 -18.674 -36.388  0.00  0.00    +0.043 A 
ATOM     39 CL   UNL A   1      48.417 -19.045 -34.898  0.00  0.00    -0.083 Cl
ATOM     40  C   UNL A   1      47.406 -17.352 -36.731  0.00  0.00    -0.043 A 
ATOM     41  C   UNL A   1      46.778 -17.069 -37.943  0.00  0.00    -0.049 A 
ATOM     42  C   UNL A   1      46.390 -18.100 -38.835  0.00  0.00    +0.022 A 
ATOM     43  C   UNL A   1      45.153 -21.501 -41.087  0.00  0.00    -0.010 C 
ATOM     44  C   UNL A   1      44.049 -21.258 -42.108  0.00  0.00    -0.047 C 
ATOM     45  C   UNL A   1      44.422 -20.074 -42.985  0.00  0.00    -0.049 C 
ATOM     46  C   UNL A   1      44.552 -18.804 -42.145  0.00  0.00    -0.024 C 
ENDBRANCH  30  32
ENDBRANCH  29  30
ENDBRANCH  28  29
ENDBRANCH  27  28
ENDBRANCH  26  27
ENDBRANCH  25  26
ENDBRANCH  24  25
ENDBRANCH   1  24
TORSDOF 14
ENDMDL
MODEL 15
REMARK VINA RESULT:    -6.150     17.445     20.993
REMARK INTER + INTRA:         -16.482
REMARK INTER:                 -11.384
REMARK INTRA:                  -5.098
REMARK UNBOUND:                -5.299
REMARK  Name = cpd20.pdb
REMARK  16 active torsions:
REMARK  status: ('A' for Active; 'I' for Inactive)
REMARK    1  A    between atoms: C_1  and  C_2
REMARK    2  A    between atoms: C_6  and  N_7
REMARK    3  A    between atoms: N_7  and  C_8
REMARK    4  A    between atoms: C_13  and  C_14
REMARK    5  A    between atoms: N_16  and  C_17
REMARK    6  A    between atoms: C_17  and  C_18
REMARK    7  A    between atoms: C_18  and  C_19
REMARK    8  A    between atoms: C_19  and  C_20
REMARK    9  A    between atoms: C_20  and  C_21
REMARK   10  A    between atoms: C_21  and  C_22
REMARK   11  A    between atoms: C_22  and  C_23
REMARK   12  A    between atoms: C_23  and  C_24
REMARK   13  A    between atoms: C_24  and  C_25
REMARK   14  A    between atoms: C_25  and  N_26
REMARK   15  A    between atoms: N_26  and  C_27
REMARK   16  A    between atoms: C_42  and  C_43
REMARK                            x       y       z     vdW  Elec       q    Type
REMARK                         _______ _______ _______ _____ _____    ______ ____
ROOT
ATOM      1  C   UNL A   1      40.905 -17.058 -37.286  0.00  0.00    -0.052 C 
ENDROOT
BRANCH   1   2
ATOM      2  C   UNL A   1      42.332 -17.240 -37.806  0.00  0.00    -0.037 C 
BRANCH   2   3
ATOM      3  C   UNL A   1      42.422 -17.404 -39.322  0.00  0.00    +0.012 C 
BRANCH   3   6
ATOM      4  C   UNL A   1      44.317 -18.573 -40.384  0.00  0.00    +0.246 C 
ATOM      5  O   UNL A   1      44.783 -17.531 -40.837  0.00  0.00    -0.270 OA
ATOM      6  N   UNL A   1      43.136 -18.619 -39.669  0.00  0.00    -0.311 N 
ATOM      7  H   UNL A   1      42.773 -19.490 -39.389  0.00  0.00    +0.000 HD
BRANCH   4  13
ATOM      8  C   UNL A   1      46.159 -20.153 -39.703  0.00  0.00    +0.044 A 
ATOM      9  C   UNL A   1      46.770 -21.413 -39.829  0.00  0.00    -0.040 A 
ATOM     10  C   UNL A   1      46.372 -22.319 -40.815  0.00  0.00    -0.060 A 
ATOM     11  C   UNL A   1      45.340 -21.990 -41.686  0.00  0.00    -0.061 A 
ATOM     12  C   UNL A   1      44.683 -20.766 -41.553  0.00  0.00    -0.048 A 
ATOM     13  C   UNL A   1      45.059 -19.861 -40.546  0.00  0.00    +0.058 A 
BRANCH   8  14
ATOM     14  N   UNL A   1      46.556 -19.269 -38.662  0.00  0.00    -0.314 N 
ATOM     15  H   UNL A   1      47.304 -18.665 -38.873  0.00  0.00    +0.000 HD
BRANCH  14  21
ATOM     16  C   UNL A   1      45.061 -16.378 -34.864  0.00  0.00    -0.039 C 
ATOM     17  C   UNL A   1      45.327 -17.723 -35.483  0.00  0.00    -0.046 A 
ATOM     18  C   UNL A   1      45.140 -18.871 -34.699  0.00  0.00    -0.058 A 
ATOM     19  C   UNL A   1      45.403 -20.136 -35.216  0.00  0.00    -0.060 A 
ATOM     20  C   UNL A   1      45.852 -20.269 -36.527  0.00  0.00    -0.040 A 
ATOM     21  C   UNL A   1      46.008 -19.147 -37.354  0.00  0.00    +0.035 A 
ATOM     22  C   UNL A   1      45.748 -17.858 -36.828  0.00  0.00    -0.026 A 
ATOM     23  C   UNL A   1      45.981 -16.638 -37.687  0.00  0.00    -0.038 C 
ENDBRANCH  14  21
ENDBRANCH   8  14
ENDBRANCH   4  13
ENDBRANCH   3   6
ENDBRANCH   2   3
ENDBRANCH   1   2
BRANCH   1  24
ATOM     24  C   UNL A   1      40.755 -17.307 -35.784  0.00  0.00    -0.053 C 
BRANCH  24  25
ATOM     25  C   UNL A   1      41.524 -18.560 -35.356  0.00  0.00    -0.053 C 
BRANCH  25  26
ATOM     26  C   UNL A   1      41.357 -18.840 -33.862  0.00  0.00    -0.053 C 
BRANCH  26  27
ATOM     27  C   UNL A   1      41.908 -20.221 -33.498  0.00  0.00    -0.052 C 
BRANCH  27  28
ATOM     28  C   UNL A   1      40.907 -21.088 -32.728  0.00  0.00    -0.037 C 
BRANCH  28  29
ATOM     29  C   UNL A   1      40.655 -22.438 -33.403  0.00  0.00    +0.009 C 
BRANCH  29  30
ATOM     30  N   UNL A   1      39.267 -22.577 -33.875  0.00  0.00    -0.343 N 
ATOM     31  H   UNL A   1      38.672 -23.291 -33.549  0.00  0.00    +0.000 HD
BRANCH  30  32
ATOM     32  C   UNL A   1      38.842 -21.615 -34.829  0.00  0.00    +0.041 A 
ATOM     33  C   UNL A   1      37.899 -20.625 -34.471  0.00  0.00    -0.005 A 
ATOM     34  C   UNL A   1      37.579 -19.657 -35.427  0.00  0.00    +0.047 A 
ATOM     35  N   UNL A   1      38.154 -19.602 -36.650  0.00  0.00    -0.251 NA
ATOM     36  C   UNL A   1      39.027 -20.550 -37.002  0.00  0.00    +0.074 A 
ATOM     37  C   UNL A   1      39.567 -20.489 -38.279  0.00  0.00    -0.017 A 
ATOM     38  C   UNL A   1      40.453 -21.458 -38.738  0.00  0.00    +0.043 A 
ATOM     39 CL   UNL A   1      41.097 -21.347 -40.330  0.00  0.00    -0.083 Cl
ATOM     40  C   UNL A   1      40.809 -22.522 -37.924  0.00  0.00    -0.043 A 
ATOM     41  C   UNL A   1      40.281 -22.595 -36.637  0.00  0.00    -0.049 A 
ATOM     42  C   UNL A   1      39.402 -21.600 -36.139  0.00  0.00    +0.022 A 
ATOM     43  C   UNL A   1      36.598 -18.549 -35.142  0.00  0.00    -0.010 C 
ATOM     44  C   UNL A   1      35.643 -18.870 -34.000  0.00  0.00    -0.047 C 
ATOM     45  C   UNL A   1      36.435 -19.358 -32.798  0.00  0.00    -0.049 C 
ATOM     46  C   UNL A   1      37.186 -20.644 -33.137  0.00  0.00    -0.024 C 
ENDBRANCH  30  32
ENDBRANCH  29  30
ENDBRANCH  28  29
ENDBRANCH  27  28
ENDBRANCH  26  27
ENDBRANCH  25  26
ENDBRANCH  24  25
ENDBRANCH   1  24
TORSDOF 14
ENDMDL
MODEL 16
REMARK VINA RESULT:    -6.054     18.952     22.259
REMARK INTER + INTRA:         -16.308
REMARK INTER:                 -11.225
REMARK INTRA:                  -5.083
REMARK UNBOUND:                -5.299
REMARK  Name = cpd20.pdb
REMARK  16 active torsions:
REMARK  status: ('A' for Active; 'I' for Inactive)
REMARK    1  A    between atoms: C_1  and  C_2
REMARK    2  A    between atoms: C_6  and  N_7
REMARK    3  A    between atoms: N_7  and  C_8
REMARK    4  A    between atoms: C_13  and  C_14
REMARK    5  A    between atoms: N_16  and  C_17
REMARK    6  A    between atoms: C_17  and  C_18
REMARK    7  A    between atoms: C_18  and  C_19
REMARK    8  A    between atoms: C_19  and  C_20
REMARK    9  A    between atoms: C_20  and  C_21
REMARK   10  A    between atoms: C_21  and  C_22
REMARK   11  A    between atoms: C_22  and  C_23
REMARK   12  A    between atoms: C_23  and  C_24
REMARK   13  A    between atoms: C_24  and  C_25
REMARK   14  A    between atoms: C_25  and  N_26
REMARK   15  A    between atoms: N_26  and  C_27
REMARK   16  A    between atoms: C_42  and  C_43
REMARK                            x       y       z     vdW  Elec       q    Type
REMARK                         _______ _______ _______ _____ _____    ______ ____
ROOT
ATOM      1  C   UNL A   1      43.463 -15.450 -36.494  0.00  0.00    -0.052 C 
ENDROOT
BRANCH   1   2
ATOM      2  C   UNL A   1      42.396 -14.820 -37.391  0.00  0.00    -0.037 C 
BRANCH   2   3
ATOM      3  C   UNL A   1      42.257 -15.494 -38.755  0.00  0.00    +0.012 C 
BRANCH   3   6
ATOM      4  C   UNL A   1      41.515 -17.844 -38.639  0.00  0.00    +0.246 C 
ATOM      5  O   UNL A   1      40.328 -17.530 -38.613  0.00  0.00    -0.270 OA
ATOM      6  N   UNL A   1      42.537 -16.914 -38.660  0.00  0.00    -0.311 N 
ATOM      7  H   UNL A   1      43.471 -17.222 -38.610  0.00  0.00    +0.000 HD
BRANCH   4  13
ATOM      8  C   UNL A   1      41.609 -20.153 -37.631  0.00  0.00    +0.044 A 
ATOM      9  C   UNL A   1      41.917 -21.517 -37.778  0.00  0.00    -0.040 A 
ATOM     10  C   UNL A   1      42.584 -21.994 -38.908  0.00  0.00    -0.060 A 
ATOM     11  C   UNL A   1      42.942 -21.118 -39.926  0.00  0.00    -0.061 A 
ATOM     12  C   UNL A   1      42.606 -19.768 -39.831  0.00  0.00    -0.048 A 
ATOM     13  C   UNL A   1      41.910 -19.284 -38.708  0.00  0.00    +0.058 A 
BRANCH   8  14
ATOM     14  N   UNL A   1      40.890 -19.702 -36.489  0.00  0.00    -0.314 N 
ATOM     15  H   UNL A   1      40.544 -18.781 -36.535  0.00  0.00    +0.000 HD
BRANCH  14  21
ATOM     16  C   UNL A   1      37.551 -21.560 -33.262  0.00  0.00    -0.039 C 
ATOM     17  C   UNL A   1      38.965 -21.274 -33.692  0.00  0.00    -0.046 A 
ATOM     18  C   UNL A   1      40.012 -21.616 -32.824  0.00  0.00    -0.058 A 
ATOM     19  C   UNL A   1      41.334 -21.343 -33.164  0.00  0.00    -0.060 A 
ATOM     20  C   UNL A   1      41.625 -20.729 -34.379  0.00  0.00    -0.040 A 
ATOM     21  C   UNL A   1      40.608 -20.414 -35.290  0.00  0.00    +0.035 A 
ATOM     22  C   UNL A   1      39.261 -20.683 -34.944  0.00  0.00    -0.026 A 
ATOM     23  C   UNL A   1      38.151 -20.284 -35.887  0.00  0.00    -0.038 C 
ENDBRANCH  14  21
ENDBRANCH   8  14
ENDBRANCH   4  13
ENDBRANCH   3   6
ENDBRANCH   2   3
ENDBRANCH   1   2
BRANCH   1  24
ATOM     24  C   UNL A   1      42.941 -15.893 -35.126  0.00  0.00    -0.053 C 
BRANCH  24  25
ATOM     25  C   UNL A   1      43.000 -17.416 -34.984  0.00  0.00    -0.053 C 
BRANCH  25  26
ATOM     26  C   UNL A   1      44.211 -18.003 -35.710  0.00  0.00    -0.053 C 
BRANCH  26  27
ATOM     27  C   UNL A   1      45.216 -18.589 -34.714  0.00  0.00    -0.052 C 
BRANCH  27  28
ATOM     28  C   UNL A   1      46.519 -19.052 -35.373  0.00  0.00    -0.037 C 
BRANCH  28  29
ATOM     29  C   UNL A   1      46.279 -19.971 -36.573  0.00  0.00    +0.009 C 
BRANCH  29  30
ATOM     30  N   UNL A   1      47.320 -19.828 -37.604  0.00  0.00    -0.343 N 
ATOM     31  H   UNL A   1      48.274 -19.972 -37.409  0.00  0.00    +0.000 HD
BRANCH  30  32
ATOM     32  C   UNL A   1      46.859 -19.471 -38.899  0.00  0.00    +0.041 A 
ATOM     33  C   UNL A   1      46.669 -20.464 -39.886  0.00  0.00    -0.005 A 
ATOM     34  C   UNL A   1      46.137 -20.064 -41.116  0.00  0.00    +0.047 A 
ATOM     35  N   UNL A   1      45.764 -18.792 -41.386  0.00  0.00    -0.251 NA
ATOM     36  C   UNL A   1      45.964 -17.845 -40.464  0.00  0.00    +0.074 A 
ATOM     37  C   UNL A   1      45.610 -16.544 -40.788  0.00  0.00    -0.017 A 
ATOM     38  C   UNL A   1      45.821 -15.493 -39.901  0.00  0.00    +0.043 A 
ATOM     39 CL   UNL A   1      45.369 -13.893 -40.342  0.00  0.00    -0.083 Cl
ATOM     40  C   UNL A   1      46.408 -15.727 -38.667  0.00  0.00    -0.043 A 
ATOM     41  C   UNL A   1      46.765 -17.030 -38.324  0.00  0.00    -0.049 A 
ATOM     42  C   UNL A   1      46.528 -18.118 -39.200  0.00  0.00    +0.022 A 
ATOM     43  C   UNL A   1      45.880 -21.045 -42.231  0.00  0.00    -0.010 C 
ATOM     44  C   UNL A   1      46.701 -22.323 -42.109  0.00  0.00    -0.047 C 
ATOM     45  C   UNL A   1      46.557 -22.886 -40.704  0.00  0.00    -0.049 C 
ATOM     46  C   UNL A   1      47.098 -21.898 -39.672  0.00  0.00    -0.024 C 
ENDBRANCH  30  32
ENDBRANCH  29  30
ENDBRANCH  28  29
ENDBRANCH  27  28
ENDBRANCH  26  27
ENDBRANCH  25  26
ENDBRANCH  24  25
ENDBRANCH   1  24
TORSDOF 14
ENDMDL
MODEL 17
REMARK VINA RESULT:    -6.030     18.043     21.457
REMARK INTER + INTRA:         -16.264
REMARK INTER:                 -11.513
REMARK INTRA:                  -4.751
REMARK UNBOUND:                -5.299
REMARK  Name = cpd20.pdb
REMARK  16 active torsions:
REMARK  status: ('A' for Active; 'I' for Inactive)
REMARK    1  A    between atoms: C_1  and  C_2
REMARK    2  A    between atoms: C_6  and  N_7
REMARK    3  A    between atoms: N_7  and  C_8
REMARK    4  A    between atoms: C_13  and  C_14
REMARK    5  A    between atoms: N_16  and  C_17
REMARK    6  A    between atoms: C_17  and  C_18
REMARK    7  A    between atoms: C_18  and  C_19
REMARK    8  A    between atoms: C_19  and  C_20
REMARK    9  A    between atoms: C_20  and  C_21
REMARK   10  A    between atoms: C_21  and  C_22
REMARK   11  A    between atoms: C_22  and  C_23
REMARK   12  A    between atoms: C_23  and  C_24
REMARK   13  A    between atoms: C_24  and  C_25
REMARK   14  A    between atoms: C_25  and  N_26
REMARK   15  A    between atoms: N_26  and  C_27
REMARK   16  A    between atoms: C_42  and  C_43
REMARK                            x       y       z     vdW  Elec       q    Type
REMARK                         _______ _______ _______ _____ _____    ______ ____
ROOT
ATOM      1  C   UNL A   1      42.182 -16.586 -39.239  0.00  0.00    -0.052 C 
ENDROOT
BRANCH   1   2
ATOM      2  C   UNL A   1      43.023 -15.470 -39.861  0.00  0.00    -0.037 C 
BRANCH   2   3
ATOM      3  C   UNL A   1      43.787 -15.895 -41.114  0.00  0.00    +0.012 C 
BRANCH   3   6
ATOM      4  C   UNL A   1      45.569 -17.556 -40.723  0.00  0.00    +0.246 C 
ATOM      5  O   UNL A   1      46.439 -16.692 -40.646  0.00  0.00    -0.270 OA
ATOM      6  N   UNL A   1      44.246 -17.267 -40.998  0.00  0.00    -0.311 N 
ATOM      7  H   UNL A   1      43.604 -18.004 -41.117  0.00  0.00    +0.000 HD
BRANCH   4  13
ATOM      8  C   UNL A   1      46.446 -19.369 -39.206  0.00  0.00    +0.044 A 
ATOM      9  C   UNL A   1      46.662 -20.737 -38.969  0.00  0.00    -0.040 A 
ATOM     10  C   UNL A   1      46.443 -21.691 -39.965  0.00  0.00    -0.060 A 
ATOM     11  C   UNL A   1      45.985 -21.298 -41.217  0.00  0.00    -0.061 A 
ATOM     12  C   UNL A   1      45.714 -19.952 -41.465  0.00  0.00    -0.048 A 
ATOM     13  C   UNL A   1      45.906 -18.988 -40.459  0.00  0.00    +0.058 A 
BRANCH   8  14
ATOM     14  N   UNL A   1      46.636 -18.424 -38.160  0.00  0.00    -0.314 N 
ATOM     15  H   UNL A   1      47.279 -17.702 -38.344  0.00  0.00    +0.000 HD
BRANCH  14  21
ATOM     16  C   UNL A   1      44.473 -15.815 -34.482  0.00  0.00    -0.039 C 
ATOM     17  C   UNL A   1      45.003 -17.097 -35.066  0.00  0.00    -0.046 A 
ATOM     18  C   UNL A   1      44.987 -18.253 -34.271  0.00  0.00    -0.058 A 
ATOM     19  C   UNL A   1      45.495 -19.455 -34.756  0.00  0.00    -0.060 A 
ATOM     20  C   UNL A   1      46.022 -19.516 -36.043  0.00  0.00    -0.040 A 
ATOM     21  C   UNL A   1      46.014 -18.392 -36.880  0.00  0.00    +0.035 A 
ATOM     22  C   UNL A   1      45.505 -17.165 -36.387  0.00  0.00    -0.026 A 
ATOM     23  C   UNL A   1      45.557 -15.930 -37.255  0.00  0.00    -0.038 C 
ENDBRANCH  14  21
ENDBRANCH   8  14
ENDBRANCH   4  13
ENDBRANCH   3   6
ENDBRANCH   2   3
ENDBRANCH   1   2
BRANCH   1  24
ATOM     24  C   UNL A   1      41.627 -16.248 -37.854  0.00  0.00    -0.053 C 
BRANCH  24  25
ATOM     25  C   UNL A   1      41.060 -17.494 -37.171  0.00  0.00    -0.053 C 
BRANCH  25  26
ATOM     26  C   UNL A   1      41.571 -17.632 -35.736  0.00  0.00    -0.053 C 
BRANCH  26  27
ATOM     27  C   UNL A   1      40.424 -17.953 -34.774  0.00  0.00    -0.052 C 
BRANCH  27  28
ATOM     28  C   UNL A   1      40.295 -19.447 -34.464  0.00  0.00    -0.037 C 
BRANCH  28  29
ATOM     29  C   UNL A   1      41.454 -19.976 -33.614  0.00  0.00    +0.009 C 
BRANCH  29  30
ATOM     30  N   UNL A   1      42.055 -21.194 -34.183  0.00  0.00    -0.343 N 
ATOM     31  H   UNL A   1      42.926 -21.538 -33.880  0.00  0.00    +0.000 HD
BRANCH  30  32
ATOM     32  C   UNL A   1      41.296 -21.839 -35.195  0.00  0.00    +0.041 A 
ATOM     33  C   UNL A   1      40.168 -22.618 -34.850  0.00  0.00    -0.005 A 
ATOM     34  C   UNL A   1      39.412 -23.164 -35.893  0.00  0.00    +0.047 A 
ATOM     35  N   UNL A   1      39.686 -22.949 -37.200  0.00  0.00    -0.251 NA
ATOM     36  C   UNL A   1      40.767 -22.234 -37.530  0.00  0.00    +0.074 A 
ATOM     37  C   UNL A   1      41.044 -22.069 -38.880  0.00  0.00    -0.017 A 
ATOM     38  C   UNL A   1      42.168 -21.372 -39.308  0.00  0.00    +0.043 A 
ATOM     39 CL   UNL A   1      42.477 -21.192 -40.991  0.00  0.00    -0.083 Cl
ATOM     40  C   UNL A   1      43.051 -20.834 -38.385  0.00  0.00    -0.043 A 
ATOM     41  C   UNL A   1      42.785 -20.987 -37.026  0.00  0.00    -0.049 A 
ATOM     42  C   UNL A   1      41.627 -21.664 -36.569  0.00  0.00    +0.022 A 
ATOM     43  C   UNL A   1      38.182 -23.996 -35.636  0.00  0.00    -0.010 C 
ATOM     44  C   UNL A   1      38.149 -24.605 -34.240  0.00  0.00    -0.047 C 
ATOM     45  C   UNL A   1      38.427 -23.525 -33.208  0.00  0.00    -0.049 C 
ATOM     46  C   UNL A   1      39.821 -22.933 -33.412  0.00  0.00    -0.024 C 
ENDBRANCH  30  32
ENDBRANCH  29  30
ENDBRANCH  28  29
ENDBRANCH  27  28
ENDBRANCH  26  27
ENDBRANCH  25  26
ENDBRANCH  24  25
ENDBRANCH   1  24
TORSDOF 14
ENDMDL
MODEL 18
REMARK VINA RESULT:    -5.933     19.730     23.224
REMARK INTER + INTRA:         -16.088
REMARK INTER:                 -10.665
REMARK INTRA:                  -5.423
REMARK UNBOUND:                -5.299
REMARK  Name = cpd20.pdb
REMARK  16 active torsions:
REMARK  status: ('A' for Active; 'I' for Inactive)
REMARK    1  A    between atoms: C_1  and  C_2
REMARK    2  A    between atoms: C_6  and  N_7
REMARK    3  A    between atoms: N_7  and  C_8
REMARK    4  A    between atoms: C_13  and  C_14
REMARK    5  A    between atoms: N_16  and  C_17
REMARK    6  A    between atoms: C_17  and  C_18
REMARK    7  A    between atoms: C_18  and  C_19
REMARK    8  A    between atoms: C_19  and  C_20
REMARK    9  A    between atoms: C_20  and  C_21
REMARK   10  A    between atoms: C_21  and  C_22
REMARK   11  A    between atoms: C_22  and  C_23
REMARK   12  A    between atoms: C_23  and  C_24
REMARK   13  A    between atoms: C_24  and  C_25
REMARK   14  A    between atoms: C_25  and  N_26
REMARK   15  A    between atoms: N_26  and  C_27
REMARK   16  A    between atoms: C_42  and  C_43
REMARK                            x       y       z     vdW  Elec       q    Type
REMARK                         _______ _______ _______ _____ _____    ______ ____
ROOT
ATOM      1  C   UNL A   1      45.222 -14.968 -41.640  0.00  0.00    -0.052 C 
ENDROOT
BRANCH   1   2
ATOM      2  C   UNL A   1      46.271 -15.696 -40.798  0.00  0.00    -0.037 C 
BRANCH   2   3
ATOM      3  C   UNL A   1      46.604 -14.995 -39.482  0.00  0.00    +0.012 C 
BRANCH   3   6
ATOM      4  C   UNL A   1      45.898 -16.672 -37.817  0.00  0.00    +0.246 C 
ATOM      5  O   UNL A   1      44.706 -16.473 -38.034  0.00  0.00    -0.270 OA
ATOM      6  N   UNL A   1      46.904 -15.962 -38.443  0.00  0.00    -0.311 N 
ATOM      7  H   UNL A   1      47.841 -16.115 -38.179  0.00  0.00    +0.000 HD
BRANCH   4  13
ATOM      8  C   UNL A   1      45.845 -19.081 -37.073  0.00  0.00    +0.044 A 
ATOM      9  C   UNL A   1      46.339 -20.088 -36.227  0.00  0.00    -0.040 A 
ATOM     10  C   UNL A   1      47.201 -19.792 -35.168  0.00  0.00    -0.060 A 
ATOM     11  C   UNL A   1      47.601 -18.480 -34.944  0.00  0.00    -0.061 A 
ATOM     12  C   UNL A   1      47.166 -17.466 -35.798  0.00  0.00    -0.048 A 
ATOM     13  C   UNL A   1      46.320 -17.760 -36.882  0.00  0.00    +0.058 A 
BRANCH   8  14
ATOM     14  N   UNL A   1      45.004 -19.418 -38.169  0.00  0.00    -0.314 N 
ATOM     15  H   UNL A   1      44.046 -19.220 -38.054  0.00  0.00    +0.000 HD
BRANCH  14  21
ATOM     16  C   UNL A   1      44.297 -19.876 -43.099  0.00  0.00    -0.039 C 
ATOM     17  C   UNL A   1      44.982 -20.260 -41.815  0.00  0.00    -0.046 A 
ATOM     18  C   UNL A   1      45.917 -21.305 -41.840  0.00  0.00    -0.058 A 
ATOM     19  C   UNL A   1      46.553 -21.716 -40.673  0.00  0.00    -0.060 A 
ATOM     20  C   UNL A   1      46.267 -21.083 -39.467  0.00  0.00    -0.040 A 
ATOM     21  C   UNL A   1      45.372 -20.006 -39.412  0.00  0.00    +0.035 A 
ATOM     22  C   UNL A   1      44.716 -19.590 -40.597  0.00  0.00    -0.026 A 
ATOM     23  C   UNL A   1      43.697 -18.477 -40.538  0.00  0.00    -0.038 C 
ENDBRANCH  14  21
ENDBRANCH   8  14
ENDBRANCH   4  13
ENDBRANCH   3   6
ENDBRANCH   2   3
ENDBRANCH   1   2
BRANCH   1  24
ATOM     24  C   UNL A   1      44.140 -14.268 -40.815  0.00  0.00    -0.053 C 
BRANCH  24  25
ATOM     25  C   UNL A   1      42.776 -14.929 -41.028  0.00  0.00    -0.053 C 
BRANCH  25  26
ATOM     26  C   UNL A   1      41.669 -14.191 -40.273  0.00  0.00    -0.053 C 
BRANCH  26  27
ATOM     27  C   UNL A   1      41.576 -14.676 -38.824  0.00  0.00    -0.052 C 
BRANCH  27  28
ATOM     28  C   UNL A   1      40.311 -15.492 -38.539  0.00  0.00    -0.037 C 
BRANCH  28  29
ATOM     29  C   UNL A   1      40.530 -16.566 -37.470  0.00  0.00    +0.009 C 
BRANCH  29  30
ATOM     30  N   UNL A   1      41.793 -17.298 -37.663  0.00  0.00    -0.343 N 
ATOM     31  H   UNL A   1      42.418 -17.081 -38.391  0.00  0.00    +0.000 HD
BRANCH  30  32
ATOM     32  C   UNL A   1      42.049 -18.338 -36.731  0.00  0.00    +0.041 A 
ATOM     33  C   UNL A   1      41.639 -19.662 -37.009  0.00  0.00    -0.005 A 
ATOM     34  C   UNL A   1      41.989 -20.657 -36.093  0.00  0.00    +0.047 A 
ATOM     35  N   UNL A   1      42.728 -20.420 -34.985  0.00  0.00    -0.251 NA
ATOM     36  C   UNL A   1      43.098 -19.167 -34.704  0.00  0.00    +0.074 A 
ATOM     37  C   UNL A   1      43.819 -18.952 -33.539  0.00  0.00    -0.017 A 
ATOM     38  C   UNL A   1      44.208 -17.674 -33.153  0.00  0.00    +0.043 A 
ATOM     39 CL   UNL A   1      45.100 -17.450 -31.699  0.00  0.00    -0.083 Cl
ATOM     40  C   UNL A   1      43.869 -16.576 -33.928  0.00  0.00    -0.043 A 
ATOM     41  C   UNL A   1      43.150 -16.775 -35.105  0.00  0.00    -0.049 A 
ATOM     42  C   UNL A   1      42.773 -18.073 -35.532  0.00  0.00    +0.022 A 
ATOM     43  C   UNL A   1      41.614 -22.102 -36.302  0.00  0.00    -0.010 C 
ATOM     44  C   UNL A   1      40.435 -22.286 -37.249  0.00  0.00    -0.047 C 
ATOM     45  C   UNL A   1      40.675 -21.488 -38.520  0.00  0.00    -0.049 C 
ATOM     46  C   UNL A   1      40.777 -19.997 -38.207  0.00  0.00    -0.024 C 
ENDBRANCH  30  32
ENDBRANCH  29  30
ENDBRANCH  28  29
ENDBRANCH  27  28
ENDBRANCH  26  27
ENDBRANCH  25  26
ENDBRANCH  24  25
ENDBRANCH   1  24
TORSDOF 14
ENDMDL
MODEL 19
REMARK VINA RESULT:    -5.926     18.074     21.985
REMARK INTER + INTRA:         -16.075
REMARK INTER:                 -11.197
REMARK INTRA:                  -4.878
REMARK UNBOUND:                -5.299
REMARK  Name = cpd20.pdb
REMARK  16 active torsions:
REMARK  status: ('A' for Active; 'I' for Inactive)
REMARK    1  A    between atoms: C_1  and  C_2
REMARK    2  A    between atoms: C_6  and  N_7
REMARK    3  A    between atoms: N_7  and  C_8
REMARK    4  A    between atoms: C_13  and  C_14
REMARK    5  A    between atoms: N_16  and  C_17
REMARK    6  A    between atoms: C_17  and  C_18
REMARK    7  A    between atoms: C_18  and  C_19
REMARK    8  A    between atoms: C_19  and  C_20
REMARK    9  A    between atoms: C_20  and  C_21
REMARK   10  A    between atoms: C_21  and  C_22
REMARK   11  A    between atoms: C_22  and  C_23
REMARK   12  A    between atoms: C_23  and  C_24
REMARK   13  A    between atoms: C_24  and  C_25
REMARK   14  A    between atoms: C_25  and  N_26
REMARK   15  A    between atoms: N_26  and  C_27
REMARK   16  A    between atoms: C_42  and  C_43
REMARK                            x       y       z     vdW  Elec       q    Type
REMARK                         _______ _______ _______ _____ _____    ______ ____
ROOT
ATOM      1  C   UNL A   1      42.777 -20.022 -38.929  0.00  0.00    -0.052 C 
ENDROOT
BRANCH   1   2
ATOM      2  C   UNL A   1      43.579 -20.421 -40.169  0.00  0.00    -0.037 C 
BRANCH   2   3
ATOM      3  C   UNL A   1      44.944 -21.030 -39.854  0.00  0.00    +0.012 C 
BRANCH   3   6
ATOM      4  C   UNL A   1      46.542 -19.754 -38.474  0.00  0.00    +0.246 C 
ATOM      5  O   UNL A   1      47.225 -19.444 -39.446  0.00  0.00    -0.270 OA
ATOM      6  N   UNL A   1      45.430 -20.570 -38.567  0.00  0.00    -0.311 N 
ATOM      7  H   UNL A   1      44.961 -20.843 -37.746  0.00  0.00    +0.000 HD
BRANCH   4  13
ATOM      8  C   UNL A   1      46.726 -17.812 -36.877  0.00  0.00    +0.044 A 
ATOM      9  C   UNL A   1      46.950 -17.349 -35.569  0.00  0.00    -0.040 A 
ATOM     10  C   UNL A   1      47.384 -18.208 -34.557  0.00  0.00    -0.060 A 
ATOM     11  C   UNL A   1      47.587 -19.556 -34.829  0.00  0.00    -0.061 A 
ATOM     12  C   UNL A   1      47.325 -20.054 -36.106  0.00  0.00    -0.048 A 
ATOM     13  C   UNL A   1      46.862 -19.200 -37.123  0.00  0.00    +0.058 A 
BRANCH   8  14
ATOM     14  N   UNL A   1      46.243 -16.923 -37.877  0.00  0.00    -0.314 N 
ATOM     15  H   UNL A   1      46.917 -16.342 -38.298  0.00  0.00    +0.000 HD
BRANCH  14  21
ATOM     16  C   UNL A   1      43.072 -15.913 -41.610  0.00  0.00    -0.039 C 
ATOM     17  C   UNL A   1      43.369 -16.220 -40.167  0.00  0.00    -0.046 A 
ATOM     18  C   UNL A   1      42.306 -16.232 -39.252  0.00  0.00    -0.058 A 
ATOM     19  C   UNL A   1      42.534 -16.480 -37.902  0.00  0.00    -0.060 A 
ATOM     20  C   UNL A   1      43.828 -16.726 -37.451  0.00  0.00    -0.040 A 
ATOM     21  C   UNL A   1      44.908 -16.767 -38.344  0.00  0.00    +0.035 A 
ATOM     22  C   UNL A   1      44.680 -16.506 -39.718  0.00  0.00    -0.026 A 
ATOM     23  C   UNL A   1      45.845 -16.477 -40.678  0.00  0.00    -0.038 C 
ENDBRANCH  14  21
ENDBRANCH   8  14
ENDBRANCH   4  13
ENDBRANCH   3   6
ENDBRANCH   2   3
ENDBRANCH   1   2
BRANCH   1  24
ATOM     24  C   UNL A   1      41.786 -21.089 -38.460  0.00  0.00    -0.053 C 
BRANCH  24  25
ATOM     25  C   UNL A   1      41.796 -21.212 -36.934  0.00  0.00    -0.053 C 
BRANCH  25  26
ATOM     26  C   UNL A   1      42.418 -19.981 -36.273  0.00  0.00    -0.053 C 
BRANCH  26  27
ATOM     27  C   UNL A   1      43.635 -20.368 -35.430  0.00  0.00    -0.052 C 
BRANCH  27  28
ATOM     28  C   UNL A   1      43.861 -19.440 -34.233  0.00  0.00    -0.037 C 
BRANCH  28  29
ATOM     29  C   UNL A   1      42.631 -18.587 -33.907  0.00  0.00    +0.009 C 
BRANCH  29  30
ATOM     30  N   UNL A   1      41.982 -18.999 -32.652  0.00  0.00    -0.343 N 
ATOM     31  H   UNL A   1      42.489 -19.128 -31.818  0.00  0.00    +0.000 HD
BRANCH  30  32
ATOM     32  C   UNL A   1      40.577 -19.196 -32.722  0.00  0.00    +0.041 A 
ATOM     33  C   UNL A   1      39.696 -18.103 -32.562  0.00  0.00    -0.005 A 
ATOM     34  C   UNL A   1      38.327 -18.342 -32.720  0.00  0.00    +0.047 A 
ATOM     35  N   UNL A   1      37.819 -19.550 -33.055  0.00  0.00    -0.251 NA
ATOM     36  C   UNL A   1      38.646 -20.592 -33.183  0.00  0.00    +0.074 A 
ATOM     37  C   UNL A   1      38.088 -21.826 -33.486  0.00  0.00    -0.017 A 
ATOM     38  C   UNL A   1      38.874 -22.968 -33.598  0.00  0.00    +0.043 A 
ATOM     39 CL   UNL A   1      38.142 -24.480 -33.972  0.00  0.00    -0.083 Cl
ATOM     40  C   UNL A   1      40.243 -22.898 -33.396  0.00  0.00    -0.043 A 
ATOM     41  C   UNL A   1      40.820 -21.665 -33.097  0.00  0.00    -0.049 A 
ATOM     42  C   UNL A   1      40.041 -20.484 -33.011  0.00  0.00    +0.022 A 
ATOM     43  C   UNL A   1      37.305 -17.244 -32.586  0.00  0.00    -0.010 C 
ATOM     44  C   UNL A   1      37.804 -16.051 -31.780  0.00  0.00    -0.047 C 
ATOM     45  C   UNL A   1      39.160 -15.613 -32.310  0.00  0.00    -0.049 C 
ATOM     46  C   UNL A   1      40.187 -16.733 -32.149  0.00  0.00    -0.024 C 
ENDBRANCH  30  32
ENDBRANCH  29  30
ENDBRANCH  28  29
ENDBRANCH  27  28
ENDBRANCH  26  27
ENDBRANCH  25  26
ENDBRANCH  24  25
ENDBRANCH   1  24
TORSDOF 14
ENDMDL
MODEL 20
REMARK VINA RESULT:    -5.926     18.713     22.130
REMARK INTER + INTRA:         -16.075
REMARK INTER:                 -10.288
REMARK INTRA:                  -5.787
REMARK UNBOUND:                -5.299
REMARK  Name = cpd20.pdb
REMARK  16 active torsions:
REMARK  status: ('A' for Active; 'I' for Inactive)
REMARK    1  A    between atoms: C_1  and  C_2
REMARK    2  A    between atoms: C_6  and  N_7
REMARK    3  A    between atoms: N_7  and  C_8
REMARK    4  A    between atoms: C_13  and  C_14
REMARK    5  A    between atoms: N_16  and  C_17
REMARK    6  A    between atoms: C_17  and  C_18
REMARK    7  A    between atoms: C_18  and  C_19
REMARK    8  A    between atoms: C_19  and  C_20
REMARK    9  A    between atoms: C_20  and  C_21
REMARK   10  A    between atoms: C_21  and  C_22
REMARK   11  A    between atoms: C_22  and  C_23
REMARK   12  A    between atoms: C_23  and  C_24
REMARK   13  A    between atoms: C_24  and  C_25
REMARK   14  A    between atoms: C_25  and  N_26
REMARK   15  A    between atoms: N_26  and  C_27
REMARK   16  A    between atoms: C_42  and  C_43
REMARK                            x       y       z     vdW  Elec       q    Type
REMARK                         _______ _______ _______ _____ _____    ______ ____
ROOT
ATOM      1  C   UNL A   1      41.559 -16.113 -34.867  0.00  0.00    -0.052 C 
ENDROOT
BRANCH   1   2
ATOM      2  C   UNL A   1      42.990 -16.150 -34.326  0.00  0.00    -0.037 C 
BRANCH   2   3
ATOM      3  C   UNL A   1      43.332 -17.429 -33.565  0.00  0.00    +0.012 C 
BRANCH   3   6
ATOM      4  C   UNL A   1      42.597 -19.779 -33.727  0.00  0.00    +0.246 C 
ATOM      5  O   UNL A   1      43.746 -20.205 -33.643  0.00  0.00    -0.270 OA
ATOM      6  N   UNL A   1      42.297 -18.430 -33.746  0.00  0.00    -0.311 N 
ATOM      7  H   UNL A   1      41.365 -18.144 -33.886  0.00  0.00    +0.000 HD
BRANCH   4  13
ATOM      8  C   UNL A   1      41.265 -21.593 -34.862  0.00  0.00    +0.044 A 
ATOM      9  C   UNL A   1      40.220 -22.532 -34.804  0.00  0.00    -0.040 A 
ATOM     10  C   UNL A   1      39.322 -22.556 -33.735  0.00  0.00    -0.060 A 
ATOM     11  C   UNL A   1      39.460 -21.650 -32.690  0.00  0.00    -0.061 A 
ATOM     12  C   UNL A   1      40.518 -20.740 -32.696  0.00  0.00    -0.048 A 
ATOM     13  C   UNL A   1      41.443 -20.728 -33.755  0.00  0.00    +0.058 A 
BRANCH   8  14
ATOM     14  N   UNL A   1      42.191 -21.621 -35.942  0.00  0.00    -0.314 N 
ATOM     15  H   UNL A   1      42.976 -22.202 -35.820  0.00  0.00    +0.000 HD
BRANCH  14  21
ATOM     16  C   UNL A   1      41.414 -21.638 -40.882  0.00  0.00    -0.039 C 
ATOM     17  C   UNL A   1      41.793 -20.946 -39.600  0.00  0.00    -0.046 A 
ATOM     18  C   UNL A   1      42.203 -19.606 -39.657  0.00  0.00    -0.058 A 
ATOM     19  C   UNL A   1      42.592 -18.933 -38.503  0.00  0.00    -0.060 A 
ATOM     20  C   UNL A   1      42.571 -19.590 -37.277  0.00  0.00    -0.040 A 
ATOM     21  C   UNL A   1      42.124 -20.915 -37.176  0.00  0.00    +0.035 A 
ATOM     22  C   UNL A   1      41.735 -21.606 -38.349  0.00  0.00    -0.026 A 
ATOM     23  C   UNL A   1      41.320 -23.055 -38.263  0.00  0.00    -0.038 C 
ENDBRANCH  14  21
ENDBRANCH   8  14
ENDBRANCH   4  13
ENDBRANCH   3   6
ENDBRANCH   2   3
ENDBRANCH   1   2
BRANCH   1  24
ATOM     24  C   UNL A   1      41.473 -15.946 -36.385  0.00  0.00    -0.053 C 
BRANCH  24  25
ATOM     25  C   UNL A   1      42.782 -15.393 -36.952  0.00  0.00    -0.053 C 
BRANCH  25  26
ATOM     26  C   UNL A   1      42.777 -15.390 -38.481  0.00  0.00    -0.053 C 
BRANCH  26  27
ATOM     27  C   UNL A   1      43.598 -14.221 -39.030  0.00  0.00    -0.052 C 
BRANCH  27  28
ATOM     28  C   UNL A   1      44.585 -14.636 -40.125  0.00  0.00    -0.037 C 
BRANCH  28  29
ATOM     29  C   UNL A   1      44.489 -16.124 -40.472  0.00  0.00    +0.009 C 
BRANCH  29  30
ATOM     30  N   UNL A   1      45.804 -16.787 -40.461  0.00  0.00    -0.343 N 
ATOM     31  H   UNL A   1      46.567 -16.446 -40.982  0.00  0.00    +0.000 HD
BRANCH  30  32
ATOM     32  C   UNL A   1      45.901 -17.949 -39.651  0.00  0.00    +0.041 A 
ATOM     33  C   UNL A   1      45.782 -19.233 -40.230  0.00  0.00    -0.005 A 
ATOM     34  C   UNL A   1      45.966 -20.341 -39.398  0.00  0.00    +0.047 A 
ATOM     35  N   UNL A   1      46.287 -20.241 -38.087  0.00  0.00    -0.251 NA
ATOM     36  C   UNL A   1      46.376 -19.030 -37.530  0.00  0.00    +0.074 A 
ATOM     37  C   UNL A   1      46.666 -18.963 -36.175  0.00  0.00    -0.017 A 
ATOM     38  C   UNL A   1      46.738 -17.744 -35.509  0.00  0.00    +0.043 A 
ATOM     39 CL   UNL A   1      47.097 -17.704 -33.826  0.00  0.00    -0.083 Cl
ATOM     40  C   UNL A   1      46.507 -16.560 -36.191  0.00  0.00    -0.043 A 
ATOM     41  C   UNL A   1      46.221 -16.609 -37.554  0.00  0.00    -0.049 A 
ATOM     42  C   UNL A   1      46.176 -17.838 -38.257  0.00  0.00    +0.022 A 
ATOM     43  C   UNL A   1      45.875 -21.753 -39.918  0.00  0.00    -0.010 C 
ATOM     44  C   UNL A   1      45.083 -21.868 -41.214  0.00  0.00    -0.047 C 
ATOM     45  C   UNL A   1      45.592 -20.841 -42.212  0.00  0.00    -0.049 C 
ATOM     46  C   UNL A   1      45.386 -19.424 -41.678  0.00  0.00    -0.024 C 
ENDBRANCH  30  32
ENDBRANCH  29  30
ENDBRANCH  28  29
ENDBRANCH  27  28
ENDBRANCH  26  27
ENDBRANCH  25  26
ENDBRANCH  24  25
ENDBRANCH   1  24
TORSDOF 14
ENDMDL
