MODEL 1
REMARK VINA RESULT:   -11.027      0.000      0.000
REMARK INTER + INTRA:         -15.070
REMARK INTER:                 -14.251
REMARK INTRA:                  -0.819
REMARK UNBOUND:                -0.819
REMARK  Name = cpd133.pdb
REMARK  5 active torsions:
REMARK  status: ('A' for Active; 'I' for Inactive)
REMARK    1  A    between atoms: C_2  and  C_3
REMARK    2  A    between atoms: C_2  and  C_19
REMARK    3  A    between atoms: C_4  and  C_5
REMARK    4  A    between atoms: N_9  and  C_10
REMARK    5  A    between atoms: C_10  and  C_11
REMARK                            x       y       z     vdW  Elec       q    Type
REMARK                         _______ _______ _______ _____ _____    ______ ____
ROOT
ATOM      1  C   UNL A   1      42.273 -38.145 -31.190  0.00  0.00    -0.009 A 
ATOM      2  C   UNL A   1      42.157 -37.512 -32.428  0.00  0.00    -0.052 A 
ATOM      3  C   UNL A   1      41.070 -36.683 -32.684  0.00  0.00    -0.045 A 
ATOM      4  C   UNL A   1      40.103 -36.504 -31.704  0.00  0.00    +0.005 A 
ATOM      5  N   UNL A   1      40.206 -37.138 -30.512  0.00  0.00    -0.348 N 
ATOM      6  C   UNL A   1      41.262 -37.944 -30.247  0.00  0.00    +0.012 A 
ENDROOT
BRANCH   1   8
ATOM      7  C   UNL A   1      43.397 -39.859 -29.797  0.00  0.00    -0.011 C 
ATOM      8  C   UNL A   1      43.385 -39.051 -30.869  0.00  0.00    -0.049 C 
BRANCH   7  10
ATOM      9  O   UNL A   1      44.178 -41.859 -28.924  0.00  0.00    -0.284 OA
ATOM     10  C   UNL A   1      44.513 -40.781 -29.417  0.00  0.00    +0.221 C 
BRANCH  10  11
ATOM     11  C   UNL A   1      45.899 -40.423 -29.639  0.00  0.00    +0.176 A 
ATOM     12  C   UNL A   1      46.778 -40.846 -30.620  0.00  0.00    -0.005 A 
ATOM     13  C   UNL A   1      48.002 -40.161 -30.411  0.00  0.00    +0.021 A 
ATOM     14  C   UNL A   1      49.260 -40.138 -31.035  0.00  0.00    -0.051 A 
ATOM     15  C   UNL A   1      50.249 -39.287 -30.519  0.00  0.00    -0.061 A 
ATOM     16  C   UNL A   1      49.997 -38.476 -29.410  0.00  0.00    -0.058 A 
ATOM     17  C   UNL A   1      48.750 -38.485 -28.777  0.00  0.00    -0.019 A 
ATOM     18  C   UNL A   1      47.789 -39.341 -29.310  0.00  0.00    +0.136 A 
ATOM     19  O   UNL A   1      46.519 -39.495 -28.841  0.00  0.00    -0.452 OA
ENDBRANCH  10  11
ENDBRANCH   7  10
ENDBRANCH   1   8
BRANCH   5  20
ATOM     20  C   UNL A   1      39.158 -36.929 -29.480  0.00  0.00    +0.048 C 
BRANCH  20  21
ATOM     21  C   UNL A   1      38.131 -38.032 -29.511  0.00  0.00    -0.028 A 
ATOM     22  C   UNL A   1      38.153 -39.067 -28.561  0.00  0.00    -0.056 A 
ATOM     23  C   UNL A   1      37.200 -40.088 -28.602  0.00  0.00    -0.047 A 
ATOM     24  C   UNL A   1      36.215 -40.079 -29.586  0.00  0.00    +0.018 A 
ATOM     25 BR   UNL A   1      34.929 -41.461 -29.640  0.00  0.00    -0.050 Br
ATOM     26  C   UNL A   1      36.171 -39.054 -30.528  0.00  0.00    -0.047 A 
ATOM     27  C   UNL A   1      37.123 -38.032 -30.490  0.00  0.00    -0.056 A 
ENDBRANCH  20  21
ENDBRANCH   5  20
TORSDOF 5
ENDMDL
MODEL 2
REMARK VINA RESULT:   -10.614      1.504      2.075
REMARK INTER + INTRA:         -14.535
REMARK INTER:                 -14.139
REMARK INTRA:                  -0.396
REMARK UNBOUND:                -0.819
REMARK  Name = cpd133.pdb
REMARK  5 active torsions:
REMARK  status: ('A' for Active; 'I' for Inactive)
REMARK    1  A    between atoms: C_2  and  C_3
REMARK    2  A    between atoms: C_2  and  C_19
REMARK    3  A    between atoms: C_4  and  C_5
REMARK    4  A    between atoms: N_9  and  C_10
REMARK    5  A    between atoms: C_10  and  C_11
REMARK                            x       y       z     vdW  Elec       q    Type
REMARK                         _______ _______ _______ _____ _____    ______ ____
ROOT
ATOM      1  C   UNL A   1      42.344 -38.069 -30.828  0.00  0.00    -0.009 A 
ATOM      2  C   UNL A   1      42.229 -37.221 -31.929  0.00  0.00    -0.052 A 
ATOM      3  C   UNL A   1      41.055 -36.502 -32.132  0.00  0.00    -0.045 A 
ATOM      4  C   UNL A   1      40.004 -36.649 -31.236  0.00  0.00    +0.005 A 
ATOM      5  N   UNL A   1      40.111 -37.489 -30.180  0.00  0.00    -0.348 N 
ATOM      6  C   UNL A   1      41.249 -38.191 -29.969  0.00  0.00    +0.012 A 
ENDROOT
BRANCH   1   8
ATOM      7  C   UNL A   1      43.517 -40.141 -30.140  0.00  0.00    -0.011 C 
ATOM      8  C   UNL A   1      43.550 -38.871 -30.574  0.00  0.00    -0.049 C 
BRANCH   7  10
ATOM      9  O   UNL A   1      44.492 -42.183 -29.640  0.00  0.00    -0.284 OA
ATOM     10  C   UNL A   1      44.715 -40.990 -29.848  0.00  0.00    +0.221 C 
BRANCH  10  11
ATOM     11  C   UNL A   1      46.051 -40.432 -29.831  0.00  0.00    +0.176 A 
ATOM     12  C   UNL A   1      46.662 -39.623 -28.888  0.00  0.00    -0.005 A 
ATOM     13  C   UNL A   1      47.989 -39.392 -29.330  0.00  0.00    +0.021 A 
ATOM     14  C   UNL A   1      49.098 -38.676 -28.851  0.00  0.00    -0.051 A 
ATOM     15  C   UNL A   1      50.286 -38.699 -29.596  0.00  0.00    -0.061 A 
ATOM     16  C   UNL A   1      50.374 -39.418 -30.791  0.00  0.00    -0.058 A 
ATOM     17  C   UNL A   1      49.280 -40.137 -31.284  0.00  0.00    -0.019 A 
ATOM     18  C   UNL A   1      48.115 -40.094 -30.523  0.00  0.00    +0.136 A 
ATOM     19  O   UNL A   1      46.947 -40.725 -30.828  0.00  0.00    -0.452 OA
ENDBRANCH  10  11
ENDBRANCH   7  10
ENDBRANCH   1   8
BRANCH   5  20
ATOM     20  C   UNL A   1      38.971 -37.626 -29.237  0.00  0.00    +0.048 C 
BRANCH  20  21
ATOM     21  C   UNL A   1      37.654 -37.377 -29.929  0.00  0.00    -0.028 A 
ATOM     22  C   UNL A   1      36.893 -38.444 -30.437  0.00  0.00    -0.056 A 
ATOM     23  C   UNL A   1      35.676 -38.203 -31.081  0.00  0.00    -0.047 A 
ATOM     24  C   UNL A   1      35.210 -36.897 -31.217  0.00  0.00    +0.018 A 
ATOM     25 BR   UNL A   1      33.567 -36.574 -32.090  0.00  0.00    -0.050 Br
ATOM     26  C   UNL A   1      35.946 -35.831 -30.709  0.00  0.00    -0.047 A 
ATOM     27  C   UNL A   1      37.163 -36.068 -30.065  0.00  0.00    -0.056 A 
ENDBRANCH  20  21
ENDBRANCH   5  20
TORSDOF 5
ENDMDL
MODEL 3
REMARK VINA RESULT:    -8.490      4.909     10.481
REMARK INTER + INTRA:         -11.791
REMARK INTER:                 -11.509
REMARK INTRA:                  -0.282
REMARK UNBOUND:                -0.819
REMARK  Name = cpd133.pdb
REMARK  5 active torsions:
REMARK  status: ('A' for Active; 'I' for Inactive)
REMARK    1  A    between atoms: C_2  and  C_3
REMARK    2  A    between atoms: C_2  and  C_19
REMARK    3  A    between atoms: C_4  and  C_5
REMARK    4  A    between atoms: N_9  and  C_10
REMARK    5  A    between atoms: C_10  and  C_11
REMARK                            x       y       z     vdW  Elec       q    Type
REMARK                         _______ _______ _______ _____ _____    ______ ____
ROOT
ATOM      1  C   UNL A   1      41.085 -37.965 -29.825  0.00  0.00    -0.009 A 
ATOM      2  C   UNL A   1      41.532 -37.205 -30.905  0.00  0.00    -0.052 A 
ATOM      3  C   UNL A   1      42.799 -37.429 -31.435  0.00  0.00    -0.045 A 
ATOM      4  C   UNL A   1      43.610 -38.405 -30.870  0.00  0.00    +0.005 A 
ATOM      5  N   UNL A   1      43.181 -39.126 -29.807  0.00  0.00    -0.348 N 
ATOM      6  C   UNL A   1      41.949 -38.921 -29.285  0.00  0.00    +0.012 A 
ENDROOT
BRANCH   1   8
ATOM      7  C   UNL A   1      38.681 -37.365 -29.893  0.00  0.00    -0.011 C 
ATOM      8  C   UNL A   1      39.766 -37.759 -29.208  0.00  0.00    -0.049 C 
BRANCH   7  10
ATOM      9  O   UNL A   1      36.908 -37.986 -28.536  0.00  0.00    -0.284 OA
ATOM     10  C   UNL A   1      37.325 -37.121 -29.307  0.00  0.00    +0.221 C 
BRANCH  10  11
ATOM     11  C   UNL A   1      36.569 -35.928 -29.624  0.00  0.00    +0.176 A 
ATOM     12  C   UNL A   1      36.868 -34.893 -30.493  0.00  0.00    -0.005 A 
ATOM     13  C   UNL A   1      35.775 -33.991 -30.463  0.00  0.00    +0.021 A 
ATOM     14  C   UNL A   1      35.457 -32.776 -31.092  0.00  0.00    -0.051 A 
ATOM     15  C   UNL A   1      34.226 -32.170 -30.800  0.00  0.00    -0.061 A 
ATOM     16  C   UNL A   1      33.328 -32.757 -29.905  0.00  0.00    -0.058 A 
ATOM     17  C   UNL A   1      33.627 -33.967 -29.270  0.00  0.00    -0.019 A 
ATOM     18  C   UNL A   1      34.857 -34.543 -29.578  0.00  0.00    +0.136 A 
ATOM     19  O   UNL A   1      35.332 -35.714 -29.070  0.00  0.00    -0.452 OA
ENDBRANCH  10  11
ENDBRANCH   7  10
ENDBRANCH   1   8
BRANCH   5  20
ATOM     20  C   UNL A   1      44.069 -40.165 -29.224  0.00  0.00    +0.048 C 
BRANCH  20  21
ATOM     21  C   UNL A   1      45.507 -39.712 -29.211  0.00  0.00    -0.028 A 
ATOM     22  C   UNL A   1      45.847 -38.400 -28.840  0.00  0.00    -0.056 A 
ATOM     23  C   UNL A   1      47.183 -37.987 -28.837  0.00  0.00    -0.047 A 
ATOM     24  C   UNL A   1      48.187 -38.884 -29.196  0.00  0.00    +0.018 A 
ATOM     25 BR   UNL A   1      49.990 -38.324 -29.192  0.00  0.00    -0.050 Br
ATOM     26  C   UNL A   1      47.867 -40.191 -29.554  0.00  0.00    -0.047 A 
ATOM     27  C   UNL A   1      46.533 -40.606 -29.560  0.00  0.00    -0.056 A 
ENDBRANCH  20  21
ENDBRANCH   5  20
TORSDOF 5
ENDMDL
MODEL 4
REMARK VINA RESULT:    -8.402      4.186     10.061
REMARK INTER + INTRA:         -11.676
REMARK INTER:                 -11.516
REMARK INTRA:                  -0.160
REMARK UNBOUND:                -0.819
REMARK  Name = cpd133.pdb
REMARK  5 active torsions:
REMARK  status: ('A' for Active; 'I' for Inactive)
REMARK    1  A    between atoms: C_2  and  C_3
REMARK    2  A    between atoms: C_2  and  C_19
REMARK    3  A    between atoms: C_4  and  C_5
REMARK    4  A    between atoms: N_9  and  C_10
REMARK    5  A    between atoms: C_10  and  C_11
REMARK                            x       y       z     vdW  Elec       q    Type
REMARK                         _______ _______ _______ _____ _____    ______ ____
ROOT
ATOM      1  C   UNL A   1      41.145 -37.959 -30.105  0.00  0.00    -0.009 A 
ATOM      2  C   UNL A   1      41.706 -36.995 -30.943  0.00  0.00    -0.052 A 
ATOM      3  C   UNL A   1      43.045 -37.087 -31.309  0.00  0.00    -0.045 A 
ATOM      4  C   UNL A   1      43.813 -38.137 -30.822  0.00  0.00    +0.005 A 
ATOM      5  N   UNL A   1      43.272 -39.059 -29.991  0.00  0.00    -0.348 N 
ATOM      6  C   UNL A   1      41.968 -38.983 -29.631  0.00  0.00    +0.012 A 
ENDROOT
BRANCH   1   8
ATOM      7  C   UNL A   1      38.795 -37.198 -30.303  0.00  0.00    -0.011 C 
ATOM      8  C   UNL A   1      39.744 -37.902 -29.666  0.00  0.00    -0.049 C 
BRANCH   7  10
ATOM      9  O   UNL A   1      36.966 -35.960 -29.600  0.00  0.00    -0.284 OA
ATOM     10  C   UNL A   1      37.362 -37.092 -29.883  0.00  0.00    +0.221 C 
BRANCH  10  11
ATOM     11  C   UNL A   1      36.501 -38.255 -29.834  0.00  0.00    +0.176 A 
ATOM     12  C   UNL A   1      36.063 -39.077 -30.858  0.00  0.00    -0.005 A 
ATOM     13  C   UNL A   1      35.272 -40.096 -30.268  0.00  0.00    +0.021 A 
ATOM     14  C   UNL A   1      34.554 -41.209 -30.737  0.00  0.00    -0.051 A 
ATOM     15  C   UNL A   1      33.883 -42.015 -29.806  0.00  0.00    -0.061 A 
ATOM     16  C   UNL A   1      33.922 -41.725 -28.440  0.00  0.00    -0.058 A 
ATOM     17  C   UNL A   1      34.632 -40.622 -27.955  0.00  0.00    -0.019 A 
ATOM     18  C   UNL A   1      35.287 -39.840 -28.903  0.00  0.00    +0.136 A 
ATOM     19  O   UNL A   1      36.030 -38.729 -28.636  0.00  0.00    -0.452 OA
ENDBRANCH  10  11
ENDBRANCH   7  10
ENDBRANCH   1   8
BRANCH   5  20
ATOM     20  C   UNL A   1      44.116 -40.172 -29.486  0.00  0.00    +0.048 C 
BRANCH  20  21
ATOM     21  C   UNL A   1      45.583 -39.842 -29.599  0.00  0.00    -0.028 A 
ATOM     22  C   UNL A   1      46.090 -38.630 -29.102  0.00  0.00    -0.056 A 
ATOM     23  C   UNL A   1      47.451 -38.330 -29.216  0.00  0.00    -0.047 A 
ATOM     24  C   UNL A   1      48.313 -39.242 -29.820  0.00  0.00    +0.018 A 
ATOM     25 BR   UNL A   1      50.151 -38.834 -29.974  0.00  0.00    -0.050 Br
ATOM     26  C   UNL A   1      47.829 -40.453 -30.307  0.00  0.00    -0.047 A 
ATOM     27  C   UNL A   1      46.469 -40.755 -30.195  0.00  0.00    -0.056 A 
ENDBRANCH  20  21
ENDBRANCH   5  20
TORSDOF 5
ENDMDL
MODEL 5
REMARK VINA RESULT:    -8.087      7.243     12.846
REMARK INTER + INTRA:         -11.270
REMARK INTER:                 -10.725
REMARK INTRA:                  -0.545
REMARK UNBOUND:                -0.819
REMARK  Name = cpd133.pdb
REMARK  5 active torsions:
REMARK  status: ('A' for Active; 'I' for Inactive)
REMARK    1  A    between atoms: C_2  and  C_3
REMARK    2  A    between atoms: C_2  and  C_19
REMARK    3  A    between atoms: C_4  and  C_5
REMARK    4  A    between atoms: N_9  and  C_10
REMARK    5  A    between atoms: C_10  and  C_11
REMARK                            x       y       z     vdW  Elec       q    Type
REMARK                         _______ _______ _______ _____ _____    ______ ____
ROOT
ATOM      1  C   UNL A   1      34.807 -36.225 -31.039  0.00  0.00    -0.009 A 
ATOM      2  C   UNL A   1      34.306 -37.420 -31.555  0.00  0.00    -0.052 A 
ATOM      3  C   UNL A   1      34.826 -38.635 -31.122  0.00  0.00    -0.045 A 
ATOM      4  C   UNL A   1      35.852 -38.642 -30.186  0.00  0.00    +0.005 A 
ATOM      5  N   UNL A   1      36.352 -37.480 -29.704  0.00  0.00    -0.348 N 
ATOM      6  C   UNL A   1      35.851 -36.290 -30.113  0.00  0.00    +0.012 A 
ENDROOT
BRANCH   1   8
ATOM      7  C   UNL A   1      34.670 -33.755 -30.892  0.00  0.00    -0.011 C 
ATOM      8  C   UNL A   1      34.313 -34.911 -31.474  0.00  0.00    -0.049 C 
BRANCH   7  10
ATOM      9  O   UNL A   1      34.968 -31.704 -31.930  0.00  0.00    -0.284 OA
ATOM     10  C   UNL A   1      34.180 -32.396 -31.285  0.00  0.00    +0.221 C 
BRANCH  10  11
ATOM     11  C   UNL A   1      32.849 -31.943 -30.936  0.00  0.00    +0.176 A 
ATOM     12  C   UNL A   1      31.646 -32.133 -31.594  0.00  0.00    -0.005 A 
ATOM     13  C   UNL A   1      30.638 -31.519 -30.810  0.00  0.00    +0.021 A 
ATOM     14  C   UNL A   1      29.246 -31.354 -30.912  0.00  0.00    -0.051 A 
ATOM     15  C   UNL A   1      28.574 -30.670 -29.889  0.00  0.00    -0.061 A 
ATOM     16  C   UNL A   1      29.266 -30.160 -28.787  0.00  0.00    -0.058 A 
ATOM     17  C   UNL A   1      30.651 -30.315 -28.668  0.00  0.00    -0.019 A 
ATOM     18  C   UNL A   1      31.290 -30.997 -29.700  0.00  0.00    +0.136 A 
ATOM     19  O   UNL A   1      32.626 -31.252 -29.771  0.00  0.00    -0.452 OA
ENDBRANCH  10  11
ENDBRANCH   7  10
ENDBRANCH   1   8
BRANCH   5  20
ATOM     20  C   UNL A   1      37.448 -37.516 -28.702  0.00  0.00    +0.048 C 
BRANCH  20  21
ATOM     21  C   UNL A   1      38.800 -37.453 -29.367  0.00  0.00    -0.028 A 
ATOM     22  C   UNL A   1      39.858 -38.268 -28.931  0.00  0.00    -0.056 A 
ATOM     23  C   UNL A   1      41.109 -38.198 -29.550  0.00  0.00    -0.047 A 
ATOM     24  C   UNL A   1      41.310 -37.318 -30.612  0.00  0.00    +0.018 A 
ATOM     25 BR   UNL A   1      43.001 -37.225 -31.445  0.00  0.00    -0.050 Br
ATOM     26  C   UNL A   1      40.268 -36.513 -31.063  0.00  0.00    -0.047 A 
ATOM     27  C   UNL A   1      39.017 -36.580 -30.446  0.00  0.00    -0.056 A 
ENDBRANCH  20  21
ENDBRANCH   5  20
TORSDOF 5
ENDMDL
MODEL 6
REMARK VINA RESULT:    -7.837     22.872     25.996
REMARK INTER + INTRA:         -10.947
REMARK INTER:                 -10.173
REMARK INTRA:                  -0.774
REMARK UNBOUND:                -0.819
REMARK  Name = cpd133.pdb
REMARK  5 active torsions:
REMARK  status: ('A' for Active; 'I' for Inactive)
REMARK    1  A    between atoms: C_2  and  C_3
REMARK    2  A    between atoms: C_2  and  C_19
REMARK    3  A    between atoms: C_4  and  C_5
REMARK    4  A    between atoms: N_9  and  C_10
REMARK    5  A    between atoms: C_10  and  C_11
REMARK                            x       y       z     vdW  Elec       q    Type
REMARK                         _______ _______ _______ _____ _____    ______ ____
ROOT
ATOM      1  C   UNL A   1      53.368 -31.684 -52.978  0.00  0.00    -0.009 A 
ATOM      2  C   UNL A   1      54.318 -30.842 -53.557  0.00  0.00    -0.052 A 
ATOM      3  C   UNL A   1      55.637 -31.265 -53.682  0.00  0.00    -0.045 A 
ATOM      4  C   UNL A   1      55.995 -32.523 -53.216  0.00  0.00    +0.005 A 
ATOM      5  N   UNL A   1      55.077 -33.329 -52.634  0.00  0.00    -0.348 N 
ATOM      6  C   UNL A   1      53.788 -32.931 -52.510  0.00  0.00    +0.012 A 
ENDROOT
BRANCH   1   8
ATOM      7  C   UNL A   1      51.023 -31.437 -53.742  0.00  0.00    -0.011 C 
ATOM      8  C   UNL A   1      51.966 -31.283 -52.798  0.00  0.00    -0.049 C 
BRANCH   7  10
ATOM      9  O   UNL A   1      49.369 -29.816 -53.666  0.00  0.00    -0.284 OA
ATOM     10  C   UNL A   1      49.590 -31.026 -53.613  0.00  0.00    +0.221 C 
BRANCH  10  11
ATOM     11  C   UNL A   1      48.535 -32.005 -53.454  0.00  0.00    +0.176 A 
ATOM     12  C   UNL A   1      47.167 -31.825 -53.345  0.00  0.00    -0.005 A 
ATOM     13  C   UNL A   1      46.580 -33.112 -53.248  0.00  0.00    +0.021 A 
ATOM     14  C   UNL A   1      45.275 -33.614 -53.117  0.00  0.00    -0.051 A 
ATOM     15  C   UNL A   1      45.092 -35.004 -53.064  0.00  0.00    -0.061 A 
ATOM     16  C   UNL A   1      46.180 -35.878 -53.140  0.00  0.00    -0.058 A 
ATOM     17  C   UNL A   1      47.487 -35.396 -53.271  0.00  0.00    -0.019 A 
ATOM     18  C   UNL A   1      47.636 -34.012 -53.319  0.00  0.00    +0.136 A 
ATOM     19  O   UNL A   1      48.818 -33.348 -53.446  0.00  0.00    -0.452 OA
ENDBRANCH  10  11
ENDBRANCH   7  10
ENDBRANCH   1   8
BRANCH   5  20
ATOM     20  C   UNL A   1      55.487 -34.670 -52.144  0.00  0.00    +0.048 C 
BRANCH  20  21
ATOM     21  C   UNL A   1      55.468 -34.733 -50.638  0.00  0.00    -0.028 A 
ATOM     22  C   UNL A   1      54.631 -35.638 -49.963  0.00  0.00    -0.056 A 
ATOM     23  C   UNL A   1      54.616 -35.684 -48.566  0.00  0.00    -0.047 A 
ATOM     24  C   UNL A   1      55.442 -34.833 -47.835  0.00  0.00    +0.018 A 
ATOM     25 BR   UNL A   1      55.419 -34.898 -45.948  0.00  0.00    -0.050 Br
ATOM     26  C   UNL A   1      56.285 -33.940 -48.488  0.00  0.00    -0.047 A 
ATOM     27  C   UNL A   1      56.302 -33.890 -49.884  0.00  0.00    -0.056 A 
ENDBRANCH  20  21
ENDBRANCH   5  20
TORSDOF 5
ENDMDL
MODEL 7
REMARK VINA RESULT:    -7.768     18.439     19.753
REMARK INTER + INTRA:         -10.857
REMARK INTER:                 -10.241
REMARK INTRA:                  -0.616
REMARK UNBOUND:                -0.819
REMARK  Name = cpd133.pdb
REMARK  5 active torsions:
REMARK  status: ('A' for Active; 'I' for Inactive)
REMARK    1  A    between atoms: C_2  and  C_3
REMARK    2  A    between atoms: C_2  and  C_19
REMARK    3  A    between atoms: C_4  and  C_5
REMARK    4  A    between atoms: N_9  and  C_10
REMARK    5  A    between atoms: C_10  and  C_11
REMARK                            x       y       z     vdW  Elec       q    Type
REMARK                         _______ _______ _______ _____ _____    ______ ____
ROOT
ATOM      1  C   UNL A   1      41.350 -21.543 -36.322  0.00  0.00    -0.009 A 
ATOM      2  C   UNL A   1      40.510 -22.386 -37.050  0.00  0.00    -0.052 A 
ATOM      3  C   UNL A   1      39.389 -22.941 -36.442  0.00  0.00    -0.045 A 
ATOM      4  C   UNL A   1      39.126 -22.658 -35.109  0.00  0.00    +0.005 A 
ATOM      5  N   UNL A   1      39.955 -21.858 -34.398  0.00  0.00    -0.348 N 
ATOM      6  C   UNL A   1      41.048 -21.307 -34.978  0.00  0.00    +0.012 A 
ENDROOT
BRANCH   1   8
ATOM      7  C   UNL A   1      42.707 -20.687 -38.210  0.00  0.00    -0.011 C 
ATOM      8  C   UNL A   1      42.561 -20.946 -36.901  0.00  0.00    -0.049 C 
BRANCH   7  10
ATOM      9  O   UNL A   1      44.124 -18.903 -38.636  0.00  0.00    -0.284 OA
ATOM     10  C   UNL A   1      43.926 -20.100 -38.850  0.00  0.00    +0.221 C 
BRANCH  10  11
ATOM     11  C   UNL A   1      44.820 -20.906 -39.655  0.00  0.00    +0.176 A 
ATOM     12  C   UNL A   1      44.698 -21.322 -40.970  0.00  0.00    -0.005 A 
ATOM     13  C   UNL A   1      45.868 -22.056 -41.288  0.00  0.00    +0.021 A 
ATOM     14  C   UNL A   1      46.355 -22.730 -42.420  0.00  0.00    -0.051 A 
ATOM     15  C   UNL A   1      47.611 -23.349 -42.345  0.00  0.00    -0.061 A 
ATOM     16  C   UNL A   1      48.369 -23.303 -41.172  0.00  0.00    -0.058 A 
ATOM     17  C   UNL A   1      47.901 -22.636 -40.034  0.00  0.00    -0.019 A 
ATOM     18  C   UNL A   1      46.650 -22.032 -40.140  0.00  0.00    +0.136 A 
ATOM     19  O   UNL A   1      46.022 -21.337 -39.151  0.00  0.00    -0.452 OA
ENDBRANCH  10  11
ENDBRANCH   7  10
ENDBRANCH   1   8
BRANCH   5  20
ATOM     20  C   UNL A   1      39.650 -21.570 -32.973  0.00  0.00    +0.048 C 
BRANCH  20  21
ATOM     21  C   UNL A   1      38.562 -20.534 -32.844  0.00  0.00    -0.028 A 
ATOM     22  C   UNL A   1      37.207 -20.905 -32.848  0.00  0.00    -0.056 A 
ATOM     23  C   UNL A   1      36.206 -19.936 -32.734  0.00  0.00    -0.047 A 
ATOM     24  C   UNL A   1      36.552 -18.593 -32.609  0.00  0.00    +0.018 A 
ATOM     25 BR   UNL A   1      35.197 -17.286 -32.456  0.00  0.00    -0.050 Br
ATOM     26  C   UNL A   1      37.890 -18.210 -32.591  0.00  0.00    -0.047 A 
ATOM     27  C   UNL A   1      38.893 -19.175 -32.706  0.00  0.00    -0.056 A 
ENDBRANCH  20  21
ENDBRANCH   5  20
TORSDOF 5
ENDMDL
MODEL 8
REMARK VINA RESULT:    -7.691      7.195      9.552
REMARK INTER + INTRA:         -10.757
REMARK INTER:                 -10.284
REMARK INTRA:                  -0.473
REMARK UNBOUND:                -0.819
REMARK  Name = cpd133.pdb
REMARK  5 active torsions:
REMARK  status: ('A' for Active; 'I' for Inactive)
REMARK    1  A    between atoms: C_2  and  C_3
REMARK    2  A    between atoms: C_2  and  C_19
REMARK    3  A    between atoms: C_4  and  C_5
REMARK    4  A    between atoms: N_9  and  C_10
REMARK    5  A    between atoms: C_10  and  C_11
REMARK                            x       y       z     vdW  Elec       q    Type
REMARK                         _______ _______ _______ _____ _____    ______ ____
ROOT
ATOM      1  C   UNL A   1      34.443 -34.105 -30.199  0.00  0.00    -0.009 A 
ATOM      2  C   UNL A   1      34.974 -33.008 -30.877  0.00  0.00    -0.052 A 
ATOM      3  C   UNL A   1      34.296 -31.793 -30.870  0.00  0.00    -0.045 A 
ATOM      4  C   UNL A   1      33.087 -31.692 -30.194  0.00  0.00    +0.005 A 
ATOM      5  N   UNL A   1      32.563 -32.764 -29.556  0.00  0.00    -0.348 N 
ATOM      6  C   UNL A   1      33.215 -33.952 -29.551  0.00  0.00    +0.012 A 
ENDROOT
BRANCH   1   8
ATOM      7  C   UNL A   1      36.201 -35.693 -29.472  0.00  0.00    -0.011 C 
ATOM      8  C   UNL A   1      35.100 -35.420 -30.189  0.00  0.00    -0.049 C 
BRANCH   7  10
ATOM      9  O   UNL A   1      36.259 -37.972 -29.058  0.00  0.00    -0.284 OA
ATOM     10  C   UNL A   1      36.918 -37.006 -29.445  0.00  0.00    +0.221 C 
BRANCH  10  11
ATOM     11  C   UNL A   1      38.298 -37.123 -29.870  0.00  0.00    +0.176 A 
ATOM     12  C   UNL A   1      39.338 -37.848 -29.314  0.00  0.00    -0.005 A 
ATOM     13  C   UNL A   1      40.474 -37.651 -30.140  0.00  0.00    +0.021 A 
ATOM     14  C   UNL A   1      41.808 -38.090 -30.134  0.00  0.00    -0.051 A 
ATOM     15  C   UNL A   1      42.657 -37.671 -31.169  0.00  0.00    -0.061 A 
ATOM     16  C   UNL A   1      42.194 -36.835 -32.188  0.00  0.00    -0.058 A 
ATOM     17  C   UNL A   1      40.868 -36.389 -32.211  0.00  0.00    -0.019 A 
ATOM     18  C   UNL A   1      40.051 -36.820 -31.169  0.00  0.00    +0.136 A 
ATOM     19  O   UNL A   1      38.736 -36.500 -31.011  0.00  0.00    -0.452 OA
ENDBRANCH  10  11
ENDBRANCH   7  10
ENDBRANCH   1   8
BRANCH   5  20
ATOM     20  C   UNL A   1      31.268 -32.628 -28.841  0.00  0.00    +0.048 C 
BRANCH  20  21
ATOM     21  C   UNL A   1      30.340 -31.684 -29.563  0.00  0.00    -0.028 A 
ATOM     22  C   UNL A   1      29.962 -30.460 -28.984  0.00  0.00    -0.056 A 
ATOM     23  C   UNL A   1      29.096 -29.594 -29.659  0.00  0.00    -0.047 A 
ATOM     24  C   UNL A   1      28.609 -29.942 -30.917  0.00  0.00    +0.018 A 
ATOM     25 BR   UNL A   1      27.439 -28.771 -31.825  0.00  0.00    -0.050 Br
ATOM     26  C   UNL A   1      28.984 -31.145 -31.509  0.00  0.00    -0.047 A 
ATOM     27  C   UNL A   1      29.848 -32.012 -30.837  0.00  0.00    -0.056 A 
ENDBRANCH  20  21
ENDBRANCH   5  20
TORSDOF 5
ENDMDL
MODEL 9
REMARK VINA RESULT:    -7.619      5.975     11.467
REMARK INTER + INTRA:         -10.665
REMARK INTER:                 -10.010
REMARK INTRA:                  -0.655
REMARK UNBOUND:                -0.819
REMARK  Name = cpd133.pdb
REMARK  5 active torsions:
REMARK  status: ('A' for Active; 'I' for Inactive)
REMARK    1  A    between atoms: C_2  and  C_3
REMARK    2  A    between atoms: C_2  and  C_19
REMARK    3  A    between atoms: C_4  and  C_5
REMARK    4  A    between atoms: N_9  and  C_10
REMARK    5  A    between atoms: C_10  and  C_11
REMARK                            x       y       z     vdW  Elec       q    Type
REMARK                         _______ _______ _______ _____ _____    ______ ____
ROOT
ATOM      1  C   UNL A   1      35.736 -40.934 -29.127  0.00  0.00    -0.009 A 
ATOM      2  C   UNL A   1      35.382 -41.088 -30.467  0.00  0.00    -0.052 A 
ATOM      3  C   UNL A   1      35.618 -40.057 -31.371  0.00  0.00    -0.045 A 
ATOM      4  C   UNL A   1      36.195 -38.877 -30.921  0.00  0.00    +0.005 A 
ATOM      5  N   UNL A   1      36.517 -38.722 -29.616  0.00  0.00    -0.348 N 
ATOM      6  C   UNL A   1      36.297 -39.719 -28.727  0.00  0.00    +0.012 A 
ENDROOT
BRANCH   1   8
ATOM      7  C   UNL A   1      34.502 -42.881 -28.217  0.00  0.00    -0.011 C 
ATOM      8  C   UNL A   1      35.491 -41.978 -28.122  0.00  0.00    -0.049 C 
BRANCH   7  10
ATOM      9  O   UNL A   1      34.367 -43.638 -26.031  0.00  0.00    -0.284 OA
ATOM     10  C   UNL A   1      34.200 -43.947 -27.211  0.00  0.00    +0.221 C 
BRANCH  10  11
ATOM     11  C   UNL A   1      33.723 -45.254 -27.615  0.00  0.00    +0.176 A 
ATOM     12  C   UNL A   1      33.170 -46.270 -26.855  0.00  0.00    -0.005 A 
ATOM     13  C   UNL A   1      32.835 -47.323 -27.742  0.00  0.00    +0.021 A 
ATOM     14  C   UNL A   1      32.261 -48.599 -27.617  0.00  0.00    -0.051 A 
ATOM     15  C   UNL A   1      32.075 -49.369 -28.775  0.00  0.00    -0.061 A 
ATOM     16  C   UNL A   1      32.449 -48.884 -30.031  0.00  0.00    -0.058 A 
ATOM     17  C   UNL A   1      33.021 -47.616 -30.175  0.00  0.00    -0.019 A 
ATOM     18  C   UNL A   1      33.195 -46.877 -29.008  0.00  0.00    +0.136 A 
ATOM     19  O   UNL A   1      33.730 -45.626 -28.935  0.00  0.00    -0.452 OA
ENDBRANCH  10  11
ENDBRANCH   7  10
ENDBRANCH   1   8
BRANCH   5  20
ATOM     20  C   UNL A   1      37.135 -37.449 -29.162  0.00  0.00    +0.048 C 
BRANCH  20  21
ATOM     21  C   UNL A   1      38.535 -37.296 -29.701  0.00  0.00    -0.028 A 
ATOM     22  C   UNL A   1      38.795 -36.475 -30.812  0.00  0.00    -0.056 A 
ATOM     23  C   UNL A   1      40.096 -36.345 -31.308  0.00  0.00    -0.047 A 
ATOM     24  C   UNL A   1      41.144 -37.028 -30.695  0.00  0.00    +0.018 A 
ATOM     25 BR   UNL A   1      42.899 -36.851 -31.367  0.00  0.00    -0.050 Br
ATOM     26  C   UNL A   1      40.904 -37.835 -29.587  0.00  0.00    -0.047 A 
ATOM     27  C   UNL A   1      39.605 -37.969 -29.089  0.00  0.00    -0.056 A 
ENDBRANCH  20  21
ENDBRANCH   5  20
TORSDOF 5
ENDMDL
MODEL 10
REMARK VINA RESULT:    -7.561      6.325     11.322
REMARK INTER + INTRA:         -10.590
REMARK INTER:                 -10.259
REMARK INTRA:                  -0.331
REMARK UNBOUND:                -0.819
REMARK  Name = cpd133.pdb
REMARK  5 active torsions:
REMARK  status: ('A' for Active; 'I' for Inactive)
REMARK    1  A    between atoms: C_2  and  C_3
REMARK    2  A    between atoms: C_2  and  C_19
REMARK    3  A    between atoms: C_4  and  C_5
REMARK    4  A    between atoms: N_9  and  C_10
REMARK    5  A    between atoms: C_10  and  C_11
REMARK                            x       y       z     vdW  Elec       q    Type
REMARK                         _______ _______ _______ _____ _____    ______ ____
ROOT
ATOM      1  C   UNL A   1      35.264 -40.628 -30.762  0.00  0.00    -0.009 A 
ATOM      2  C   UNL A   1      35.762 -41.351 -29.678  0.00  0.00    -0.052 A 
ATOM      3  C   UNL A   1      36.531 -40.712 -28.711  0.00  0.00    -0.045 A 
ATOM      4  C   UNL A   1      36.804 -39.357 -28.845  0.00  0.00    +0.005 A 
ATOM      5  N   UNL A   1      36.338 -38.662 -29.909  0.00  0.00    -0.348 N 
ATOM      6  C   UNL A   1      35.584 -39.272 -30.855  0.00  0.00    +0.012 A 
ENDROOT
BRANCH   1   8
ATOM      7  C   UNL A   1      34.794 -41.202 -33.126  0.00  0.00    -0.011 C 
ATOM      8  C   UNL A   1      34.465 -41.253 -31.826  0.00  0.00    -0.049 C 
BRANCH   7  10
ATOM      9  O   UNL A   1      33.611 -41.018 -35.110  0.00  0.00    -0.284 OA
ATOM     10  C   UNL A   1      34.004 -41.803 -34.247  0.00  0.00    +0.221 C 
BRANCH  10  11
ATOM     11  C   UNL A   1      33.742 -43.226 -34.308  0.00  0.00    +0.176 A 
ATOM     12  C   UNL A   1      32.694 -43.958 -33.776  0.00  0.00    -0.005 A 
ATOM     13  C   UNL A   1      32.889 -45.309 -34.158  0.00  0.00    +0.021 A 
ATOM     14  C   UNL A   1      32.210 -46.521 -33.950  0.00  0.00    -0.051 A 
ATOM     15  C   UNL A   1      32.732 -47.690 -34.522  0.00  0.00    -0.061 A 
ATOM     16  C   UNL A   1      33.902 -47.660 -35.285  0.00  0.00    -0.058 A 
ATOM     17  C   UNL A   1      34.592 -46.462 -35.502  0.00  0.00    -0.019 A 
ATOM     18  C   UNL A   1      34.050 -45.319 -34.921  0.00  0.00    +0.136 A 
ATOM     19  O   UNL A   1      34.568 -44.062 -35.015  0.00  0.00    -0.452 OA
ENDBRANCH  10  11
ENDBRANCH   7  10
ENDBRANCH   1   8
BRANCH   5  20
ATOM     20  C   UNL A   1      36.643 -37.213 -30.027  0.00  0.00    +0.048 C 
BRANCH  20  21
ATOM     21  C   UNL A   1      38.091 -36.986 -30.384  0.00  0.00    -0.028 A 
ATOM     22  C   UNL A   1      38.445 -36.237 -31.519  0.00  0.00    -0.056 A 
ATOM     23  C   UNL A   1      39.790 -36.037 -31.845  0.00  0.00    -0.047 A 
ATOM     24  C   UNL A   1      40.788 -36.577 -31.037  0.00  0.00    +0.018 A 
ATOM     25 BR   UNL A   1      42.603 -36.305 -31.480  0.00  0.00    -0.050 Br
ATOM     26  C   UNL A   1      40.453 -37.310 -29.902  0.00  0.00    -0.047 A 
ATOM     27  C   UNL A   1      39.110 -37.513 -29.574  0.00  0.00    -0.056 A 
ENDBRANCH  20  21
ENDBRANCH   5  20
TORSDOF 5
ENDMDL
MODEL 11
REMARK VINA RESULT:    -7.561      7.485     10.131
REMARK INTER + INTRA:         -10.590
REMARK INTER:                  -9.900
REMARK INTRA:                  -0.690
REMARK UNBOUND:                -0.819
REMARK  Name = cpd133.pdb
REMARK  5 active torsions:
REMARK  status: ('A' for Active; 'I' for Inactive)
REMARK    1  A    between atoms: C_2  and  C_3
REMARK    2  A    between atoms: C_2  and  C_19
REMARK    3  A    between atoms: C_4  and  C_5
REMARK    4  A    between atoms: N_9  and  C_10
REMARK    5  A    between atoms: C_10  and  C_11
REMARK                            x       y       z     vdW  Elec       q    Type
REMARK                         _______ _______ _______ _____ _____    ______ ____
ROOT
ATOM      1  C   UNL A   1      33.722 -33.923 -30.376  0.00  0.00    -0.009 A 
ATOM      2  C   UNL A   1      34.291 -32.690 -30.060  0.00  0.00    -0.052 A 
ATOM      3  C   UNL A   1      33.596 -31.515 -30.328  0.00  0.00    -0.045 A 
ATOM      4  C   UNL A   1      32.343 -31.587 -30.921  0.00  0.00    +0.005 A 
ATOM      5  N   UNL A   1      31.802 -32.784 -31.248  0.00  0.00    -0.348 N 
ATOM      6  C   UNL A   1      32.467 -33.935 -30.988  0.00  0.00    +0.012 A 
ENDROOT
BRANCH   1   8
ATOM      7  C   UNL A   1      35.518 -35.309 -29.377  0.00  0.00    -0.011 C 
ATOM      8  C   UNL A   1      34.418 -35.196 -30.138  0.00  0.00    -0.049 C 
BRANCH   7  10
ATOM      9  O   UNL A   1      35.676 -37.438 -28.475  0.00  0.00    -0.284 OA
ATOM     10  C   UNL A   1      36.272 -36.576 -29.123  0.00  0.00    +0.221 C 
BRANCH  10  11
ATOM     11  C   UNL A   1      37.615 -36.772 -29.628  0.00  0.00    +0.176 A 
ATOM     12  C   UNL A   1      38.654 -37.530 -29.117  0.00  0.00    -0.005 A 
ATOM     13  C   UNL A   1      39.743 -37.412 -30.017  0.00  0.00    +0.021 A 
ATOM     14  C   UNL A   1      41.053 -37.915 -30.081  0.00  0.00    -0.051 A 
ATOM     15  C   UNL A   1      41.853 -37.566 -31.179  0.00  0.00    -0.061 A 
ATOM     16  C   UNL A   1      41.365 -36.737 -32.192  0.00  0.00    -0.058 A 
ATOM     17  C   UNL A   1      40.063 -36.227 -32.146  0.00  0.00    -0.019 A 
ATOM     18  C   UNL A   1      39.294 -36.590 -31.043  0.00  0.00    +0.136 A 
ATOM     19  O   UNL A   1      38.008 -36.202 -30.813  0.00  0.00    -0.452 OA
ENDBRANCH  10  11
ENDBRANCH   7  10
ENDBRANCH   1   8
BRANCH   5  20
ATOM     20  C   UNL A   1      30.459 -32.832 -31.881  0.00  0.00    +0.048 C 
BRANCH  20  21
ATOM     21  C   UNL A   1      29.431 -32.119 -31.038  0.00  0.00    -0.028 A 
ATOM     22  C   UNL A   1      28.882 -30.894 -31.453  0.00  0.00    -0.056 A 
ATOM     23  C   UNL A   1      27.934 -30.238 -30.663  0.00  0.00    -0.047 A 
ATOM     24  C   UNL A   1      27.524 -30.804 -29.458  0.00  0.00    +0.018 A 
ATOM     25 BR   UNL A   1      26.244 -29.915 -28.391  0.00  0.00    -0.050 Br
ATOM     26  C   UNL A   1      28.049 -32.023 -29.039  0.00  0.00    -0.047 A 
ATOM     27  C   UNL A   1      28.998 -32.681 -29.826  0.00  0.00    -0.056 A 
ENDBRANCH  20  21
ENDBRANCH   5  20
TORSDOF 5
ENDMDL
MODEL 12
REMARK VINA RESULT:    -7.332      5.168      8.501
REMARK INTER + INTRA:         -10.293
REMARK INTER:                  -9.594
REMARK INTRA:                  -0.700
REMARK UNBOUND:                -0.819
REMARK  Name = cpd133.pdb
REMARK  5 active torsions:
REMARK  status: ('A' for Active; 'I' for Inactive)
REMARK    1  A    between atoms: C_2  and  C_3
REMARK    2  A    between atoms: C_2  and  C_19
REMARK    3  A    between atoms: C_4  and  C_5
REMARK    4  A    between atoms: N_9  and  C_10
REMARK    5  A    between atoms: C_10  and  C_11
REMARK                            x       y       z     vdW  Elec       q    Type
REMARK                         _______ _______ _______ _____ _____    ______ ____
ROOT
ATOM      1  C   UNL A   1      35.070 -40.265 -28.743  0.00  0.00    -0.009 A 
ATOM      2  C   UNL A   1      35.754 -41.476 -28.631  0.00  0.00    -0.052 A 
ATOM      3  C   UNL A   1      35.353 -42.414 -27.686  0.00  0.00    -0.045 A 
ATOM      4  C   UNL A   1      34.277 -42.127 -26.855  0.00  0.00    +0.005 A 
ATOM      5  N   UNL A   1      33.630 -40.942 -26.952  0.00  0.00    -0.348 N 
ATOM      6  C   UNL A   1      34.007 -40.022 -27.870  0.00  0.00    +0.012 A 
ENDROOT
BRANCH   1   8
ATOM      7  C   UNL A   1      36.022 -38.059 -29.350  0.00  0.00    -0.011 C 
ATOM      8  C   UNL A   1      35.461 -39.226 -29.706  0.00  0.00    -0.049 C 
BRANCH   7  10
ATOM      9  O   UNL A   1      35.513 -36.211 -30.652  0.00  0.00    -0.284 OA
ATOM     10  C   UNL A   1      36.418 -36.963 -30.289  0.00  0.00    +0.221 C 
BRANCH  10  11
ATOM     11  C   UNL A   1      37.790 -36.798 -30.723  0.00  0.00    +0.176 A 
ATOM     12  C   UNL A   1      38.311 -36.014 -31.738  0.00  0.00    -0.005 A 
ATOM     13  C   UNL A   1      39.718 -36.184 -31.719  0.00  0.00    +0.021 A 
ATOM     14  C   UNL A   1      40.800 -35.687 -32.465  0.00  0.00    -0.051 A 
ATOM     15  C   UNL A   1      42.097 -36.097 -32.121  0.00  0.00    -0.061 A 
ATOM     16  C   UNL A   1      42.317 -36.980 -31.060  0.00  0.00    -0.058 A 
ATOM     17  C   UNL A   1      41.251 -37.484 -30.306  0.00  0.00    -0.019 A 
ATOM     18  C   UNL A   1      39.976 -37.060 -30.673  0.00  0.00    +0.136 A 
ATOM     19  O   UNL A   1      38.815 -37.432 -30.067  0.00  0.00    -0.452 OA
ENDBRANCH  10  11
ENDBRANCH   7  10
ENDBRANCH   1   8
BRANCH   5  20
ATOM     20  C   UNL A   1      32.482 -40.662 -26.051  0.00  0.00    +0.048 C 
BRANCH  20  21
ATOM     21  C   UNL A   1      32.934 -39.984 -24.782  0.00  0.00    -0.028 A 
ATOM     22  C   UNL A   1      33.024 -38.583 -24.705  0.00  0.00    -0.056 A 
ATOM     23  C   UNL A   1      33.450 -37.964 -23.526  0.00  0.00    -0.047 A 
ATOM     24  C   UNL A   1      33.782 -38.738 -22.416  0.00  0.00    +0.018 A 
ATOM     25 BR   UNL A   1      34.358 -37.899 -20.826  0.00  0.00    -0.050 Br
ATOM     26  C   UNL A   1      33.687 -40.126 -22.473  0.00  0.00    -0.047 A 
ATOM     27  C   UNL A   1      33.262 -40.748 -23.650  0.00  0.00    -0.056 A 
ENDBRANCH  20  21
ENDBRANCH   5  20
TORSDOF 5
ENDMDL
MODEL 13
REMARK VINA RESULT:    -7.311      4.664      8.035
REMARK INTER + INTRA:         -10.266
REMARK INTER:                  -9.641
REMARK INTRA:                  -0.625
REMARK UNBOUND:                -0.819
REMARK  Name = cpd133.pdb
REMARK  5 active torsions:
REMARK  status: ('A' for Active; 'I' for Inactive)
REMARK    1  A    between atoms: C_2  and  C_3
REMARK    2  A    between atoms: C_2  and  C_19
REMARK    3  A    between atoms: C_4  and  C_5
REMARK    4  A    between atoms: N_9  and  C_10
REMARK    5  A    between atoms: C_10  and  C_11
REMARK                            x       y       z     vdW  Elec       q    Type
REMARK                         _______ _______ _______ _____ _____    ______ ____
ROOT
ATOM      1  C   UNL A   1      35.573 -39.898 -30.500  0.00  0.00    -0.009 A 
ATOM      2  C   UNL A   1      35.816 -40.734 -29.410  0.00  0.00    -0.052 A 
ATOM      3  C   UNL A   1      34.980 -41.818 -29.166  0.00  0.00    -0.045 A 
ATOM      4  C   UNL A   1      33.902 -42.050 -30.010  0.00  0.00    +0.005 A 
ATOM      5  N   UNL A   1      33.655 -41.225 -31.055  0.00  0.00    -0.348 N 
ATOM      6  C   UNL A   1      34.463 -40.168 -31.305  0.00  0.00    +0.012 A 
ENDROOT
BRANCH   1   8
ATOM      7  C   UNL A   1      36.248 -37.533 -30.195  0.00  0.00    -0.011 C 
ATOM      8  C   UNL A   1      36.406 -38.724 -30.795  0.00  0.00    -0.049 C 
BRANCH   7  10
ATOM      9  O   UNL A   1      36.449 -35.235 -30.415  0.00  0.00    -0.284 OA
ATOM     10  C   UNL A   1      37.056 -36.305 -30.476  0.00  0.00    +0.221 C 
BRANCH  10  11
ATOM     11  C   UNL A   1      38.469 -36.384 -30.781  0.00  0.00    +0.176 A 
ATOM     12  C   UNL A   1      39.265 -35.529 -31.525  0.00  0.00    -0.005 A 
ATOM     13  C   UNL A   1      40.586 -36.041 -31.482  0.00  0.00    +0.021 A 
ATOM     14  C   UNL A   1      41.829 -35.661 -32.014  0.00  0.00    -0.051 A 
ATOM     15  C   UNL A   1      42.952 -36.450 -31.727  0.00  0.00    -0.061 A 
ATOM     16  C   UNL A   1      42.846 -37.593 -30.929  0.00  0.00    -0.058 A 
ATOM     17  C   UNL A   1      41.617 -37.986 -30.390  0.00  0.00    -0.019 A 
ATOM     18  C   UNL A   1      40.520 -37.183 -30.694  0.00  0.00    +0.136 A 
ATOM     19  O   UNL A   1      39.244 -37.393 -30.267  0.00  0.00    -0.452 OA
ENDBRANCH  10  11
ENDBRANCH   7  10
ENDBRANCH   1   8
BRANCH   5  20
ATOM     20  C   UNL A   1      32.495 -41.496 -31.942  0.00  0.00    +0.048 C 
BRANCH  20  21
ATOM     21  C   UNL A   1      32.724 -42.728 -32.781  0.00  0.00    -0.028 A 
ATOM     22  C   UNL A   1      31.980 -43.900 -32.561  0.00  0.00    -0.056 A 
ATOM     23  C   UNL A   1      32.203 -45.038 -33.341  0.00  0.00    -0.047 A 
ATOM     24  C   UNL A   1      33.165 -45.012 -34.348  0.00  0.00    +0.018 A 
ATOM     25 BR   UNL A   1      33.466 -46.552 -35.398  0.00  0.00    -0.050 Br
ATOM     26  C   UNL A   1      33.902 -43.856 -34.586  0.00  0.00    -0.047 A 
ATOM     27  C   UNL A   1      33.682 -42.716 -33.808  0.00  0.00    -0.056 A 
ENDBRANCH  20  21
ENDBRANCH   5  20
TORSDOF 5
ENDMDL
MODEL 14
REMARK VINA RESULT:    -7.310     17.972     21.251
REMARK INTER + INTRA:         -10.265
REMARK INTER:                  -9.403
REMARK INTRA:                  -0.863
REMARK UNBOUND:                -0.819
REMARK  Name = cpd133.pdb
REMARK  5 active torsions:
REMARK  status: ('A' for Active; 'I' for Inactive)
REMARK    1  A    between atoms: C_2  and  C_3
REMARK    2  A    between atoms: C_2  and  C_19
REMARK    3  A    between atoms: C_4  and  C_5
REMARK    4  A    between atoms: N_9  and  C_10
REMARK    5  A    between atoms: C_10  and  C_11
REMARK                            x       y       z     vdW  Elec       q    Type
REMARK                         _______ _______ _______ _____ _____    ______ ____
ROOT
ATOM      1  C   UNL A   1      43.857 -21.139 -40.728  0.00  0.00    -0.009 A 
ATOM      2  C   UNL A   1      43.960 -20.555 -41.990  0.00  0.00    -0.052 A 
ATOM      3  C   UNL A   1      45.150 -19.948 -42.379  0.00  0.00    -0.045 A 
ATOM      4  C   UNL A   1      46.221 -19.921 -41.496  0.00  0.00    +0.005 A 
ATOM      5  N   UNL A   1      46.110 -20.469 -40.263  0.00  0.00    -0.348 N 
ATOM      6  C   UNL A   1      44.959 -21.067 -39.873  0.00  0.00    +0.012 A 
ENDROOT
BRANCH   1   8
ATOM      7  C   UNL A   1      42.250 -21.805 -38.962  0.00  0.00    -0.011 C 
ATOM      8  C   UNL A   1      42.619 -21.774 -40.252  0.00  0.00    -0.049 C 
BRANCH   7  10
ATOM      9  O   UNL A   1      40.433 -23.225 -39.196  0.00  0.00    -0.284 OA
ATOM     10  C   UNL A   1      41.013 -22.457 -38.428  0.00  0.00    +0.221 C 
BRANCH  10  11
ATOM     11  C   UNL A   1      40.548 -22.203 -37.080  0.00  0.00    +0.176 A 
ATOM     12  C   UNL A   1      39.686 -21.228 -36.608  0.00  0.00    -0.005 A 
ATOM     13  C   UNL A   1      39.529 -21.444 -35.216  0.00  0.00    +0.021 A 
ATOM     14  C   UNL A   1      38.813 -20.826 -34.177  0.00  0.00    -0.051 A 
ATOM     15  C   UNL A   1      38.909 -21.362 -32.885  0.00  0.00    -0.061 A 
ATOM     16  C   UNL A   1      39.696 -22.487 -32.627  0.00  0.00    -0.058 A 
ATOM     17  C   UNL A   1      40.415 -23.116 -33.649  0.00  0.00    -0.019 A 
ATOM     18  C   UNL A   1      40.302 -22.560 -34.920  0.00  0.00    +0.136 A 
ATOM     19  O   UNL A   1      40.918 -23.023 -36.044  0.00  0.00    -0.452 OA
ENDBRANCH  10  11
ENDBRANCH   7  10
ENDBRANCH   1   8
BRANCH   5  20
ATOM     20  C   UNL A   1      47.272 -20.427 -39.338  0.00  0.00    +0.048 C 
BRANCH  20  21
ATOM     21  C   UNL A   1      46.924 -19.721 -38.052  0.00  0.00    -0.028 A 
ATOM     22  C   UNL A   1      46.821 -18.320 -38.003  0.00  0.00    -0.056 A 
ATOM     23  C   UNL A   1      46.503 -17.674 -36.805  0.00  0.00    -0.047 A 
ATOM     24  C   UNL A   1      46.280 -18.422 -35.651  0.00  0.00    +0.018 A 
ATOM     25 BR   UNL A   1      45.852 -17.547 -34.033  0.00  0.00    -0.050 Br
ATOM     26  C   UNL A   1      46.367 -19.811 -35.686  0.00  0.00    -0.047 A 
ATOM     27  C   UNL A   1      46.685 -20.460 -36.881  0.00  0.00    -0.056 A 
ENDBRANCH  20  21
ENDBRANCH   5  20
TORSDOF 5
ENDMDL
MODEL 15
REMARK VINA RESULT:    -7.204      5.912      8.731
REMARK INTER + INTRA:         -10.128
REMARK INTER:                  -9.714
REMARK INTRA:                  -0.414
REMARK UNBOUND:                -0.819
REMARK  Name = cpd133.pdb
REMARK  5 active torsions:
REMARK  status: ('A' for Active; 'I' for Inactive)
REMARK    1  A    between atoms: C_2  and  C_3
REMARK    2  A    between atoms: C_2  and  C_19
REMARK    3  A    between atoms: C_4  and  C_5
REMARK    4  A    between atoms: N_9  and  C_10
REMARK    5  A    between atoms: C_10  and  C_11
REMARK                            x       y       z     vdW  Elec       q    Type
REMARK                         _______ _______ _______ _____ _____    ______ ____
ROOT
ATOM      1  C   UNL A   1      34.525 -34.219 -29.947  0.00  0.00    -0.009 A 
ATOM      2  C   UNL A   1      34.855 -33.019 -30.577  0.00  0.00    -0.052 A 
ATOM      3  C   UNL A   1      33.937 -31.975 -30.607  0.00  0.00    -0.045 A 
ATOM      4  C   UNL A   1      32.691 -32.147 -30.017  0.00  0.00    +0.005 A 
ATOM      5  N   UNL A   1      32.365 -33.320 -29.427  0.00  0.00    -0.348 N 
ATOM      6  C   UNL A   1      33.251 -34.343 -29.386  0.00  0.00    +0.012 A 
ENDROOT
BRANCH   1   8
ATOM      7  C   UNL A   1      35.737 -36.038 -28.778  0.00  0.00    -0.011 C 
ATOM      8  C   UNL A   1      35.444 -35.365 -29.903  0.00  0.00    -0.049 C 
BRANCH   7  10
ATOM      9  O   UNL A   1      36.326 -38.118 -27.944  0.00  0.00    -0.284 OA
ATOM     10  C   UNL A   1      36.680 -37.196 -28.679  0.00  0.00    +0.221 C 
BRANCH  10  11
ATOM     11  C   UNL A   1      37.923 -37.223 -29.422  0.00  0.00    +0.176 A 
ATOM     12  C   UNL A   1      38.263 -36.592 -30.606  0.00  0.00    -0.005 A 
ATOM     13  C   UNL A   1      39.615 -36.916 -30.881  0.00  0.00    +0.021 A 
ATOM     14  C   UNL A   1      40.535 -36.610 -31.898  0.00  0.00    -0.051 A 
ATOM     15  C   UNL A   1      41.834 -37.132 -31.807  0.00  0.00    -0.061 A 
ATOM     16  C   UNL A   1      42.213 -37.940 -30.733  0.00  0.00    -0.058 A 
ATOM     17  C   UNL A   1      41.311 -38.256 -29.711  0.00  0.00    -0.019 A 
ATOM     18  C   UNL A   1      40.029 -37.724 -29.830  0.00  0.00    +0.136 A 
ATOM     19  O   UNL A   1      39.011 -37.910 -28.944  0.00  0.00    -0.452 OA
ENDBRANCH  10  11
ENDBRANCH   7  10
ENDBRANCH   1   8
BRANCH   5  20
ATOM     20  C   UNL A   1      31.026 -33.476 -28.802  0.00  0.00    +0.048 C 
BRANCH  20  21
ATOM     21  C   UNL A   1      30.122 -34.334 -29.652  0.00  0.00    -0.028 A 
ATOM     22  C   UNL A   1      29.401 -35.401 -29.089  0.00  0.00    -0.056 A 
ATOM     23  C   UNL A   1      28.570 -36.194 -29.885  0.00  0.00    -0.047 A 
ATOM     24  C   UNL A   1      28.449 -35.923 -31.246  0.00  0.00    +0.018 A 
ATOM     25 BR   UNL A   1      27.326 -36.996 -32.320  0.00  0.00    -0.050 Br
ATOM     26  C   UNL A   1      29.147 -34.862 -31.817  0.00  0.00    -0.047 A 
ATOM     27  C   UNL A   1      29.978 -34.068 -31.024  0.00  0.00    -0.056 A 
ENDBRANCH  20  21
ENDBRANCH   5  20
TORSDOF 5
ENDMDL
MODEL 16
REMARK VINA RESULT:    -7.101     18.572     19.938
REMARK INTER + INTRA:          -9.996
REMARK INTER:                  -9.236
REMARK INTRA:                  -0.759
REMARK UNBOUND:                -0.819
REMARK  Name = cpd133.pdb
REMARK  5 active torsions:
REMARK  status: ('A' for Active; 'I' for Inactive)
REMARK    1  A    between atoms: C_2  and  C_3
REMARK    2  A    between atoms: C_2  and  C_19
REMARK    3  A    between atoms: C_4  and  C_5
REMARK    4  A    between atoms: N_9  and  C_10
REMARK    5  A    between atoms: C_10  and  C_11
REMARK                            x       y       z     vdW  Elec       q    Type
REMARK                         _______ _______ _______ _____ _____    ______ ____
ROOT
ATOM      1  C   UNL A   1      43.216 -20.140 -35.553  0.00  0.00    -0.009 A 
ATOM      2  C   UNL A   1      43.510 -19.541 -34.329  0.00  0.00    -0.052 A 
ATOM      3  C   UNL A   1      42.690 -19.769 -33.229  0.00  0.00    -0.045 A 
ATOM      4  C   UNL A   1      41.576 -20.587 -33.368  0.00  0.00    +0.005 A 
ATOM      5  N   UNL A   1      41.280 -21.149 -34.564  0.00  0.00    -0.348 N 
ATOM      6  C   UNL A   1      42.073 -20.938 -35.641  0.00  0.00    +0.012 A 
ENDROOT
BRANCH   1   8
ATOM      7  C   UNL A   1      45.353 -19.686 -36.723  0.00  0.00    -0.011 C 
ATOM      8  C   UNL A   1      44.031 -19.918 -36.756  0.00  0.00    -0.049 C 
BRANCH   7  10
ATOM      9  O   UNL A   1      46.897 -18.404 -37.883  0.00  0.00    -0.284 OA
ATOM     10  C   UNL A   1      46.221 -19.434 -37.916  0.00  0.00    +0.221 C 
BRANCH  10  11
ATOM     11  C   UNL A   1      46.267 -20.361 -39.027  0.00  0.00    +0.176 A 
ATOM     12  C   UNL A   1      45.474 -20.427 -40.160  0.00  0.00    -0.005 A 
ATOM     13  C   UNL A   1      45.963 -21.497 -40.952  0.00  0.00    +0.021 A 
ATOM     14  C   UNL A   1      45.615 -22.077 -42.183  0.00  0.00    -0.051 A 
ATOM     15  C   UNL A   1      46.376 -23.156 -42.656  0.00  0.00    -0.061 A 
ATOM     16  C   UNL A   1      47.459 -23.650 -41.925  0.00  0.00    -0.058 A 
ATOM     17  C   UNL A   1      47.821 -23.085 -40.698  0.00  0.00    -0.019 A 
ATOM     18  C   UNL A   1      47.046 -22.017 -40.254  0.00  0.00    +0.136 A 
ATOM     19  O   UNL A   1      47.234 -21.332 -39.091  0.00  0.00    -0.452 OA
ENDBRANCH  10  11
ENDBRANCH   7  10
ENDBRANCH   1   8
BRANCH   5  20
ATOM     20  C   UNL A   1      40.083 -22.020 -34.685  0.00  0.00    +0.048 C 
BRANCH  20  21
ATOM     21  C   UNL A   1      38.835 -21.302 -34.236  0.00  0.00    -0.028 A 
ATOM     22  C   UNL A   1      38.138 -21.715 -33.088  0.00  0.00    -0.056 A 
ATOM     23  C   UNL A   1      36.979 -21.047 -32.682  0.00  0.00    -0.047 A 
ATOM     24  C   UNL A   1      36.513 -19.958 -33.417  0.00  0.00    +0.018 A 
ATOM     25 BR   UNL A   1      34.947 -19.058 -32.868  0.00  0.00    -0.050 Br
ATOM     26  C   UNL A   1      37.199 -19.529 -34.550  0.00  0.00    -0.047 A 
ATOM     27  C   UNL A   1      38.357 -20.196 -34.958  0.00  0.00    -0.056 A 
ENDBRANCH  20  21
ENDBRANCH   5  20
TORSDOF 5
ENDMDL
MODEL 17
REMARK VINA RESULT:    -6.919     19.306     20.878
REMARK INTER + INTRA:          -9.760
REMARK INTER:                  -8.853
REMARK INTRA:                  -0.907
REMARK UNBOUND:                -0.819
REMARK  Name = cpd133.pdb
REMARK  5 active torsions:
REMARK  status: ('A' for Active; 'I' for Inactive)
REMARK    1  A    between atoms: C_2  and  C_3
REMARK    2  A    between atoms: C_2  and  C_19
REMARK    3  A    between atoms: C_4  and  C_5
REMARK    4  A    between atoms: N_9  and  C_10
REMARK    5  A    between atoms: C_10  and  C_11
REMARK                            x       y       z     vdW  Elec       q    Type
REMARK                         _______ _______ _______ _____ _____    ______ ____
ROOT
ATOM      1  C   UNL A   1      42.016 -21.125 -37.270  0.00  0.00    -0.009 A 
ATOM      2  C   UNL A   1      40.746 -21.594 -37.604  0.00  0.00    -0.052 A 
ATOM      3  C   UNL A   1      39.814 -21.845 -36.602  0.00  0.00    -0.045 A 
ATOM      4  C   UNL A   1      40.167 -21.634 -35.275  0.00  0.00    +0.005 A 
ATOM      5  N   UNL A   1      41.408 -21.200 -34.954  0.00  0.00    -0.348 N 
ATOM      6  C   UNL A   1      42.323 -20.948 -35.919  0.00  0.00    +0.012 A 
ENDROOT
BRANCH   1   8
ATOM      7  C   UNL A   1      43.289 -19.650 -38.803  0.00  0.00    -0.011 C 
ATOM      8  C   UNL A   1      43.050 -20.864 -38.282  0.00  0.00    -0.049 C 
BRANCH   7  10
ATOM      9  O   UNL A   1      44.299 -18.190 -40.292  0.00  0.00    -0.284 OA
ATOM     10  C   UNL A   1      44.314 -19.339 -39.848  0.00  0.00    +0.221 C 
BRANCH  10  11
ATOM     11  C   UNL A   1      45.270 -20.333 -40.288  0.00  0.00    +0.176 A 
ATOM     12  C   UNL A   1      46.454 -20.746 -39.701  0.00  0.00    -0.005 A 
ATOM     13  C   UNL A   1      46.991 -21.774 -40.517  0.00  0.00    +0.021 A 
ATOM     14  C   UNL A   1      48.136 -22.587 -40.485  0.00  0.00    -0.051 A 
ATOM     15  C   UNL A   1      48.317 -23.531 -41.506  0.00  0.00    -0.061 A 
ATOM     16  C   UNL A   1      47.383 -23.668 -42.537  0.00  0.00    -0.058 A 
ATOM     17  C   UNL A   1      46.236 -22.867 -42.584  0.00  0.00    -0.019 A 
ATOM     18  C   UNL A   1      46.086 -21.938 -41.558  0.00  0.00    +0.136 A 
ATOM     19  O   UNL A   1      45.044 -21.071 -41.422  0.00  0.00    -0.452 OA
ENDBRANCH  10  11
ENDBRANCH   7  10
ENDBRANCH   1   8
BRANCH   5  20
ATOM     20  C   UNL A   1      41.758 -20.982 -33.526  0.00  0.00    +0.048 C 
BRANCH  20  21
ATOM     21  C   UNL A   1      42.160 -19.551 -33.273  0.00  0.00    -0.028 A 
ATOM     22  C   UNL A   1      41.200 -18.525 -33.249  0.00  0.00    -0.056 A 
ATOM     23  C   UNL A   1      41.582 -17.201 -33.020  0.00  0.00    -0.047 A 
ATOM     24  C   UNL A   1      42.924 -16.893 -32.806  0.00  0.00    +0.018 A 
ATOM     25 BR   UNL A   1      43.438 -15.103 -32.497  0.00  0.00    -0.050 Br
ATOM     26  C   UNL A   1      43.886 -17.899 -32.814  0.00  0.00    -0.047 A 
ATOM     27  C   UNL A   1      43.507 -19.224 -33.045  0.00  0.00    -0.056 A 
ENDBRANCH  20  21
ENDBRANCH   5  20
TORSDOF 5
ENDMDL
MODEL 18
REMARK VINA RESULT:    -6.895     18.217     20.309
REMARK INTER + INTRA:          -9.729
REMARK INTER:                  -9.048
REMARK INTRA:                  -0.681
REMARK UNBOUND:                -0.819
REMARK  Name = cpd133.pdb
REMARK  5 active torsions:
REMARK  status: ('A' for Active; 'I' for Inactive)
REMARK    1  A    between atoms: C_2  and  C_3
REMARK    2  A    between atoms: C_2  and  C_19
REMARK    3  A    between atoms: C_4  and  C_5
REMARK    4  A    between atoms: N_9  and  C_10
REMARK    5  A    between atoms: C_10  and  C_11
REMARK                            x       y       z     vdW  Elec       q    Type
REMARK                         _______ _______ _______ _____ _____    ______ ____
ROOT
ATOM      1  C   UNL A   1      44.257 -19.563 -36.378  0.00  0.00    -0.009 A 
ATOM      2  C   UNL A   1      45.122 -19.571 -35.284  0.00  0.00    -0.052 A 
ATOM      3  C   UNL A   1      44.619 -19.401 -33.999  0.00  0.00    -0.045 A 
ATOM      4  C   UNL A   1      43.255 -19.211 -33.822  0.00  0.00    +0.005 A 
ATOM      5  N   UNL A   1      42.419 -19.181 -34.887  0.00  0.00    -0.348 N 
ATOM      6  C   UNL A   1      42.896 -19.350 -36.143  0.00  0.00    +0.012 A 
ENDROOT
BRANCH   1   8
ATOM      7  C   UNL A   1      44.838 -18.692 -38.625  0.00  0.00    -0.011 C 
ATOM      8  C   UNL A   1      44.732 -19.714 -37.761  0.00  0.00    -0.049 C 
BRANCH   7  10
ATOM      9  O   UNL A   1      45.035 -17.838 -40.770  0.00  0.00    -0.284 OA
ATOM     10  C   UNL A   1      45.295 -18.800 -40.046  0.00  0.00    +0.221 C 
BRANCH  10  11
ATOM     11  C   UNL A   1      46.015 -19.962 -40.522  0.00  0.00    +0.176 A 
ATOM     12  C   UNL A   1      47.218 -20.498 -40.094  0.00  0.00    -0.005 A 
ATOM     13  C   UNL A   1      47.457 -21.662 -40.866  0.00  0.00    +0.021 A 
ATOM     14  C   UNL A   1      48.469 -22.635 -40.932  0.00  0.00    -0.051 A 
ATOM     15  C   UNL A   1      48.336 -23.681 -41.856  0.00  0.00    -0.061 A 
ATOM     16  C   UNL A   1      47.223 -23.763 -42.698  0.00  0.00    -0.058 A 
ATOM     17  C   UNL A   1      46.206 -22.805 -42.646  0.00  0.00    -0.019 A 
ATOM     18  C   UNL A   1      46.367 -21.777 -41.720  0.00  0.00    +0.136 A 
ATOM     19  O   UNL A   1      45.492 -20.753 -41.514  0.00  0.00    -0.452 OA
ENDBRANCH  10  11
ENDBRANCH   7  10
ENDBRANCH   1   8
BRANCH   5  20
ATOM     20  C   UNL A   1      40.964 -18.978 -34.669  0.00  0.00    +0.048 C 
BRANCH  20  21
ATOM     21  C   UNL A   1      40.261 -20.286 -34.409  0.00  0.00    -0.028 A 
ATOM     22  C   UNL A   1      39.843 -21.105 -35.471  0.00  0.00    -0.056 A 
ATOM     23  C   UNL A   1      39.187 -22.313 -35.220  0.00  0.00    -0.047 A 
ATOM     24  C   UNL A   1      38.950 -22.715 -33.907  0.00  0.00    +0.018 A 
ATOM     25 BR   UNL A   1      38.063 -24.347 -33.571  0.00  0.00    -0.050 Br
ATOM     26  C   UNL A   1      39.369 -21.921 -32.843  0.00  0.00    -0.047 A 
ATOM     27  C   UNL A   1      40.024 -20.712 -33.091  0.00  0.00    -0.056 A 
ENDBRANCH  20  21
ENDBRANCH   5  20
TORSDOF 5
ENDMDL
MODEL 19
REMARK VINA RESULT:    -6.833     18.691     21.584
REMARK INTER + INTRA:          -9.649
REMARK INTER:                  -8.789
REMARK INTRA:                  -0.860
REMARK UNBOUND:                -0.819
REMARK  Name = cpd133.pdb
REMARK  5 active torsions:
REMARK  status: ('A' for Active; 'I' for Inactive)
REMARK    1  A    between atoms: C_2  and  C_3
REMARK    2  A    between atoms: C_2  and  C_19
REMARK    3  A    between atoms: C_4  and  C_5
REMARK    4  A    between atoms: N_9  and  C_10
REMARK    5  A    between atoms: C_10  and  C_11
REMARK                            x       y       z     vdW  Elec       q    Type
REMARK                         _______ _______ _______ _____ _____    ______ ____
ROOT
ATOM      1  C   UNL A   1      44.156 -19.981 -36.502  0.00  0.00    -0.009 A 
ATOM      2  C   UNL A   1      44.936 -19.437 -35.482  0.00  0.00    -0.052 A 
ATOM      3  C   UNL A   1      46.041 -18.653 -35.796  0.00  0.00    -0.045 A 
ATOM      4  C   UNL A   1      46.361 -18.430 -37.129  0.00  0.00    +0.005 A 
ATOM      5  N   UNL A   1      45.616 -18.978 -38.117  0.00  0.00    -0.348 N 
ATOM      6  C   UNL A   1      44.535 -19.740 -37.825  0.00  0.00    +0.012 A 
ENDROOT
BRANCH   1   8
ATOM      7  C   UNL A   1      42.105 -21.200 -37.174  0.00  0.00    -0.011 C 
ATOM      8  C   UNL A   1      42.991 -20.837 -36.234  0.00  0.00    -0.049 C 
BRANCH   7  10
ATOM      9  O   UNL A   1      40.815 -23.071 -37.630  0.00  0.00    -0.284 OA
ATOM     10  C   UNL A   1      40.894 -22.050 -36.945  0.00  0.00    +0.221 C 
BRANCH  10  11
ATOM     11  C   UNL A   1      39.893 -21.690 -35.963  0.00  0.00    +0.176 A 
ATOM     12  C   UNL A   1      39.432 -22.399 -34.866  0.00  0.00    -0.005 A 
ATOM     13  C   UNL A   1      38.479 -21.581 -34.209  0.00  0.00    +0.021 A 
ATOM     14  C   UNL A   1      37.664 -21.703 -33.071  0.00  0.00    -0.051 A 
ATOM     15  C   UNL A   1      36.830 -20.630 -32.725  0.00  0.00    -0.061 A 
ATOM     16  C   UNL A   1      36.804 -19.461 -33.489  0.00  0.00    -0.058 A 
ATOM     17  C   UNL A   1      37.609 -19.321 -34.624  0.00  0.00    -0.019 A 
ATOM     18  C   UNL A   1      38.425 -20.403 -34.943  0.00  0.00    +0.136 A 
ATOM     19  O   UNL A   1      39.279 -20.464 -36.003  0.00  0.00    -0.452 OA
ENDBRANCH  10  11
ENDBRANCH   7  10
ENDBRANCH   1   8
BRANCH   5  20
ATOM     20  C   UNL A   1      45.981 -18.723 -39.534  0.00  0.00    +0.048 C 
BRANCH  20  21
ATOM     21  C   UNL A   1      46.365 -20.000 -40.239  0.00  0.00    -0.028 A 
ATOM     22  C   UNL A   1      47.358 -20.844 -39.713  0.00  0.00    -0.056 A 
ATOM     23  C   UNL A   1      47.712 -22.022 -40.377  0.00  0.00    -0.047 A 
ATOM     24  C   UNL A   1      47.072 -22.368 -41.566  0.00  0.00    +0.018 A 
ATOM     25 BR   UNL A   1      47.552 -23.959 -42.461  0.00  0.00    -0.050 Br
ATOM     26  C   UNL A   1      46.078 -21.548 -42.093  0.00  0.00    -0.047 A 
ATOM     27  C   UNL A   1      45.723 -20.370 -41.433  0.00  0.00    -0.056 A 
ENDBRANCH  20  21
ENDBRANCH   5  20
TORSDOF 5
ENDMDL
MODEL 20
REMARK VINA RESULT:    -6.469     18.227     20.615
REMARK INTER + INTRA:          -9.179
REMARK INTER:                  -8.421
REMARK INTRA:                  -0.758
REMARK UNBOUND:                -0.819
REMARK  Name = cpd133.pdb
REMARK  5 active torsions:
REMARK  status: ('A' for Active; 'I' for Inactive)
REMARK    1  A    between atoms: C_2  and  C_3
REMARK    2  A    between atoms: C_2  and  C_19
REMARK    3  A    between atoms: C_4  and  C_5
REMARK    4  A    between atoms: N_9  and  C_10
REMARK    5  A    between atoms: C_10  and  C_11
REMARK                            x       y       z     vdW  Elec       q    Type
REMARK                         _______ _______ _______ _____ _____    ______ ____
ROOT
ATOM      1  C   UNL A   1      41.637 -18.713 -37.643  0.00  0.00    -0.009 A 
ATOM      2  C   UNL A   1      40.485 -18.126 -38.167  0.00  0.00    -0.052 A 
ATOM      3  C   UNL A   1      39.332 -18.047 -37.391  0.00  0.00    -0.045 A 
ATOM      4  C   UNL A   1      39.341 -18.566 -36.103  0.00  0.00    +0.005 A 
ATOM      5  N   UNL A   1      40.454 -19.155 -35.606  0.00  0.00    -0.348 N 
ATOM      6  C   UNL A   1      41.584 -19.236 -36.349  0.00  0.00    +0.012 A 
ENDROOT
BRANCH   1   8
ATOM      7  C   UNL A   1      43.316 -17.915 -39.282  0.00  0.00    -0.011 C 
ATOM      8  C   UNL A   1      42.876 -18.847 -38.422  0.00  0.00    -0.049 C 
BRANCH   7  10
ATOM      9  O   UNL A   1      45.178 -16.965 -40.281  0.00  0.00    -0.284 OA
ATOM     10  C   UNL A   1      44.558 -18.015 -40.111  0.00  0.00    +0.221 C 
BRANCH  10  11
ATOM     11  C   UNL A   1      45.001 -19.280 -40.660  0.00  0.00    +0.176 A 
ATOM     12  C   UNL A   1      44.531 -19.985 -41.754  0.00  0.00    -0.005 A 
ATOM     13  C   UNL A   1      45.338 -21.143 -41.885  0.00  0.00    +0.021 A 
ATOM     14  C   UNL A   1      45.387 -22.241 -42.761  0.00  0.00    -0.051 A 
ATOM     15  C   UNL A   1      46.377 -23.214 -42.563  0.00  0.00    -0.061 A 
ATOM     16  C   UNL A   1      47.300 -23.102 -41.520  0.00  0.00    -0.058 A 
ATOM     17  C   UNL A   1      47.267 -22.017 -40.638  0.00  0.00    -0.019 A 
ATOM     18  C   UNL A   1      46.272 -21.068 -40.859  0.00  0.00    +0.136 A 
ATOM     19  O   UNL A   1      46.073 -19.943 -40.118  0.00  0.00    -0.452 OA
ENDBRANCH  10  11
ENDBRANCH   7  10
ENDBRANCH   1   8
BRANCH   5  20
ATOM     20  C   UNL A   1      40.436 -19.702 -34.225  0.00  0.00    +0.048 C 
BRANCH  20  21
ATOM     21  C   UNL A   1      39.701 -21.017 -34.166  0.00  0.00    -0.028 A 
ATOM     22  C   UNL A   1      38.637 -21.209 -33.267  0.00  0.00    -0.056 A 
ATOM     23  C   UNL A   1      37.965 -22.434 -33.216  0.00  0.00    -0.047 A 
ATOM     24  C   UNL A   1      38.346 -23.471 -34.064  0.00  0.00    +0.018 A 
ATOM     25 BR   UNL A   1      37.438 -25.125 -33.992  0.00  0.00    -0.050 Br
ATOM     26  C   UNL A   1      39.390 -23.292 -34.968  0.00  0.00    -0.047 A 
ATOM     27  C   UNL A   1      40.064 -22.070 -35.022  0.00  0.00    -0.056 A 
ENDBRANCH  20  21
ENDBRANCH   5  20
TORSDOF 5
ENDMDL
