REMARK  Name = cpd133.pdb
REMARK  5 active torsions:
REMARK  status: ('A' for Active; 'I' for Inactive)
REMARK    1  A    between atoms: C_2  and  C_3
REMARK    2  A    between atoms: C_2  and  C_19
REMARK    3  A    between atoms: C_4  and  C_5
REMARK    4  A    between atoms: N_9  and  C_10
REMARK    5  A    between atoms: C_10  and  C_11
REMARK                            x       y       z     vdW  Elec       q    Type
REMARK                         _______ _______ _______ _____ _____    ______ ____
ROOT
ATOM      1  C   UNL A   1      -3.321  -0.041   0.648  0.00  0.00    -0.009 A 
ATOM      2  C   UNL A   1      -4.535   0.633   0.781  0.00  0.00    -0.052 A 
ATOM      3  C   UNL A   1      -5.684  -0.069   1.130  0.00  0.00    -0.045 A 
ATOM      4  C   UNL A   1      -5.609  -1.441   1.331  0.00  0.00    +0.005 A 
ATOM      5  N   UNL A   1      -4.434  -2.096   1.179  0.00  0.00    -0.348 N 
ATOM      6  C   UNL A   1      -3.307  -1.424   0.844  0.00  0.00    +0.012 A 
ENDROOT
BRANCH   1   8
ATOM      7  C   UNL A   1      -1.733   1.861   0.702  0.00  0.00    -0.011 C 
ATOM      8  C   UNL A   1      -2.079   0.642   0.259  0.00  0.00    -0.049 C 
BRANCH   7  10
ATOM      9  O   UNL A   1      -0.571   3.834   0.344  0.00  0.00    -0.284 OA
ATOM     10  C   UNL A   1      -0.492   2.605   0.319  0.00  0.00    +0.221 C 
BRANCH  10  11
ATOM     11  C   UNL A   1       0.726   1.909  -0.040  0.00  0.00    +0.176 A 
ATOM     12  C   UNL A   1       1.903   2.401  -0.578  0.00  0.00    -0.005 A 
ATOM     13  C   UNL A   1       2.797   1.308  -0.701  0.00  0.00    +0.021 A 
ATOM     14  C   UNL A   1       4.112   1.132  -1.163  0.00  0.00    -0.051 A 
ATOM     15  C   UNL A   1       4.676  -0.151  -1.111  0.00  0.00    -0.061 A 
ATOM     16  C   UNL A   1       3.953  -1.237  -0.611  0.00  0.00    -0.058 A 
ATOM     17  C   UNL A   1       2.643  -1.081  -0.146  0.00  0.00    -0.019 A 
ATOM     18  C   UNL A   1       2.110   0.204  -0.212  0.00  0.00    +0.136 A 
ATOM     19  O   UNL A   1       0.859   0.563   0.190  0.00  0.00    -0.452 OA
ENDBRANCH  10  11
ENDBRANCH   7  10
ENDBRANCH   1   8
BRANCH   5  20
ATOM     20  C   UNL A   1      -4.382  -3.564   1.401  0.00  0.00    +0.048 C 
BRANCH  20  21
ATOM     21  C   UNL A   1      -5.159  -4.306   0.343  0.00  0.00    -0.028 A 
ATOM     22  C   UNL A   1      -4.807  -4.207  -1.014  0.00  0.00    -0.056 A 
ATOM     23  C   UNL A   1      -5.537  -4.894  -1.988  0.00  0.00    -0.047 A 
ATOM     24  C   UNL A   1      -6.618  -5.689  -1.613  0.00  0.00    +0.018 A 
ATOM     25 BR   UNL A   1      -7.603  -6.615  -2.931  0.00  0.00    -0.050 Br
ATOM     26  C   UNL A   1      -6.972  -5.807  -0.272  0.00  0.00    -0.047 A 
ATOM     27  C   UNL A   1      -6.245  -5.121   0.704  0.00  0.00    -0.056 A 
ENDBRANCH  20  21
ENDBRANCH   5  20
TORSDOF 5
