REMARK  Name = cpd97.pdb
REMARK  13 active torsions:
REMARK  status: ('A' for Active; 'I' for Inactive)
REMARK    1  A    between atoms: C_1  and  C_2
REMARK    2  A    between atoms: C_2  and  C_3
REMARK    3  A    between atoms: C_3  and  C_4
REMARK    4  A    between atoms: C_3  and  C_5
REMARK    5  A    between atoms: C_16  and  C_17
REMARK    6  A    between atoms: C_18  and  C_19
REMARK    7  A    between atoms: C_19  and  C_20
REMARK    8  A    between atoms: C_19  and  N_21
REMARK    9  A    between atoms: N_21  and  C_22
REMARK   10  A    between atoms: N_21  and  C_23
REMARK   11  A    between atoms: C_24  and  O_25
REMARK   12  A    between atoms: C_27  and  C_28
REMARK   13  A    between atoms: C_33  and  C_34
REMARK                            x       y       z     vdW  Elec       q    Type
REMARK                         _______ _______ _______ _____ _____    ______ ____
ROOT
ATOM      1  C   UNL     1       2.346   0.339  -0.739  0.00  0.00    +0.188 C 
ATOM      2  N   UNL     1       2.310  -0.943  -0.823  0.00  0.00    -0.250 NA
ATOM      3  C   UNL     1       1.024  -1.628  -0.662  0.00  0.00    +0.067 C 
ATOM      4  C   UNL     1       1.281  -3.063  -0.181  0.00  0.00    -0.011 C 
ATOM      5  C   UNL     1       0.079  -3.719   0.439  0.00  0.00    -0.082 C 
ATOM      6  C   UNL     1      -1.081  -3.091   0.721  0.00  0.00    -0.069 C 
ATOM      7  C   UNL     1      -2.206  -3.845   1.400  0.00  0.00    -0.022 C 
ATOM      8  C   UNL     1      -3.542  -3.868   0.623  0.00  0.00    +0.025 C 
ATOM      9  C   UNL     1      -4.465  -4.946   1.214  0.00  0.00    +0.138 C 
ATOM     10  O   UNL     1      -4.062  -5.773   2.036  0.00  0.00    -0.297 OA
ATOM     11  C   UNL     1      -5.899  -5.043   0.712  0.00  0.00    +0.012 C 
ATOM     12  C   UNL     1      -6.391  -3.757   0.033  0.00  0.00    -0.013 C 
ATOM     13  C   UNL     1      -6.051  -3.851  -1.481  0.00  0.00    -0.058 C 
ATOM     14  C   UNL     1      -7.929  -3.468   0.199  0.00  0.00    +0.007 C 
ATOM     15  C   UNL     1      -8.020  -1.924  -0.001  0.00  0.00    +0.061 C 
ATOM     16  C   UNL     1      -6.593  -1.357   0.167  0.00  0.00    -0.020 C 
ATOM     17  C   UNL     1      -5.763  -2.513   0.759  0.00  0.00    -0.020 C 
ATOM     18  C   UNL     1      -6.037  -2.484   2.308  0.00  0.00    -0.059 C 
ATOM     19  C   UNL     1      -4.202  -2.455   0.603  0.00  0.00    -0.025 C 
ATOM     20  C   UNL     1      -3.704  -1.585  -0.572  0.00  0.00    -0.048 C 
ATOM     21  C   UNL     1      -2.193  -1.568  -0.864  0.00  0.00    -0.046 C 
ATOM     22  C   UNL     1      -1.293  -1.613   0.391  0.00  0.00    -0.009 C 
ATOM     23  C   UNL     1       0.086  -0.862   0.280  0.00  0.00    +0.031 C 
ATOM     24  C   UNL     1       0.675  -0.725   1.718  0.00  0.00    -0.054 C 
ATOM     25  C   UNL     1      -0.013   0.543  -0.326  0.00  0.00    +0.099 C 
ATOM     26  O   UNL     1       1.282   1.146  -0.495  0.00  0.00    -0.479 OA
ENDROOT
BRANCH   1  27
ATOM     27  C   UNL     1       3.633   1.142  -0.866  0.00  0.00    +0.032 C 
ATOM     28  C   UNL     1       3.886   1.906   0.437  0.00  0.00    -0.054 C 
BRANCH  27  30
ATOM     29  C   UNL     1       6.111   1.008  -1.517  0.00  0.00    -0.065 C 
ATOM     30  C   UNL     1       4.825   0.242  -1.243  0.00  0.00    -0.045 C 
ENDBRANCH  27  30
ENDBRANCH   1  27
BRANCH  14  31
ATOM     31  C   UNL     1      -8.944  -4.301  -0.642  0.00  0.00    +0.013 C 
ATOM     32  C   UNL     1     -10.395  -3.874  -0.342  0.00  0.00    -0.049 C 
BRANCH  31  33
ATOM     33  N   UNL     1      -8.716  -5.756  -0.451  0.00  0.00    -0.305 N 
ATOM     34  C   UNL     1      -9.194  -6.537  -1.594  0.00  0.00    -0.013 C 
ATOM     35  C   UNL     1      -9.255  -6.308   0.792  0.00  0.00    -0.013 C 
ATOM     36  H   UNL     1      -7.702  -5.839  -0.380  0.00  0.00    +0.000 HD
ENDBRANCH  31  33
ENDBRANCH  14  31
BRANCH  15  37
ATOM     37  O   UNL     1      -8.502  -1.568  -1.289  0.00  0.00    -0.391 OA
ATOM     38  H   UNL     1      -7.900  -1.914  -1.966  0.00  0.00    +0.000 HD
ENDBRANCH  15  37
TORSDOF 5
