@<TRIPOS>MOLECULE
*****
 10 9 0 0 0
SMALL
GASTEIGER

@<TRIPOS>ATOM
      1 C          -4.5000   -1.8660    0.0000 C.3     1  UNL1        0.0000
      2 C          -4.0000   -2.7321    0.0000 C.3     1  UNL1        0.0000
      3 C          -3.0000   -2.7321    0.0000 C.3     1  UNL1        0.0002
      4 C          -2.5000   -1.8660    0.0000 C.3     1  UNL1        0.0061
      5 C          -1.5000   -1.8660    0.0000 C.3     1  UNL1        0.0610
      6 C          -1.0000   -1.0000    0.0000 C.3     1  UNL1        0.1092
      7 N           0.0000   -1.0000    0.0000 N.4     1  UNL1        0.3106
      8 C           0.0000   -2.0000    0.0000 C.3     1  UNL1        0.1710
      9 C           1.0000   -1.0000    0.0000 C.3     1  UNL1        0.1710
     10 C           0.0000   -0.0000    0.0000 C.3     1  UNL1        0.1710
@<TRIPOS>UNITY_ATOM_ATTR
7 1
charge 1
@<TRIPOS>BOND
     1     1     2    1
     2     2     3    1
     3     3     4    1
     4     4     5    1
     5     5     6    1
     6     6     7    1
     7     7     8    1
     8     7     9    1
     9     7    10    1
