REMARK  Name = cpd224.pdb
REMARK  9 active torsions:
REMARK  status: ('A' for Active; 'I' for Inactive)
REMARK    1  A    between atoms: C_1  and  C_2
REMARK    2  A    between atoms: C_2  and  C_3
REMARK    3  A    between atoms: C_3  and  C_4
REMARK    4  A    between atoms: C_4  and  C_5
REMARK    5  A    between atoms: C_5  and  C_6
REMARK    6  A    between atoms: C_6  and  N_7
REMARK    7  A    between atoms: N_7  and  C_8
REMARK    8  A    between atoms: N_7  and  C_9
REMARK    9  A    between atoms: N_7  and  C_10
REMARK                            x       y       z     vdW  Elec       q    Type
REMARK                         _______ _______ _______ _____ _____    ______ ____
ROOT
ATOM      1  C   UNL     1      -2.322  -2.176   0.102  0.00  0.00    -0.068 C 
ENDROOT
BRANCH   1   2
ATOM      2  C   UNL     1      -3.685  -1.483  -0.083  0.00  0.00    -0.055 C 
BRANCH   2   3
ATOM      3  C   UNL     1      -4.835  -2.480   0.078  0.00  0.00    -0.053 C 
BRANCH   3   5
ATOM      4  C   UNL     1      -6.629  -0.748   0.625  0.00  0.00    -0.065 C 
ATOM      5  C   UNL     1      -6.202  -1.894  -0.278  0.00  0.00    -0.056 C 
ENDBRANCH   3   5
ENDBRANCH   2   3
ENDBRANCH   1   2
BRANCH   1   6
ATOM      6  C   UNL     1      -1.000  -1.000   0.000  0.00  0.00    -0.089 C 
BRANCH   6   7
ATOM      7  N   UNL     1       0.000  -1.000   0.000  0.00  0.00    +0.374 N 
ATOM      8  C   UNL     1       0.000  -2.000   0.000  0.00  0.00    -0.101 C 
ATOM      9  C   UNL     1       1.000  -1.000   0.000  0.00  0.00    -0.101 C 
ATOM     10  C   UNL     1       0.000   0.000   0.000  0.00  0.00    -0.101 C 
ENDBRANCH   6   7
ENDBRANCH   1   6
TORSDOF 5
