MODEL 1
REMARK VINA RESULT:    -4.899      0.000      0.000
REMARK INTER + INTRA:          -4.202
REMARK INTER:                  -5.758
REMARK INTRA:                   1.557
REMARK UNBOUND:                 1.557
REMARK  Name = cpd224.pdb
REMARK  9 active torsions:
REMARK  status: ('A' for Active; 'I' for Inactive)
REMARK    1  A    between atoms: C_1  and  C_2
REMARK    2  A    between atoms: C_2  and  C_3
REMARK    3  A    between atoms: C_3  and  C_4
REMARK    4  A    between atoms: C_4  and  C_5
REMARK    5  A    between atoms: C_5  and  C_6
REMARK    6  A    between atoms: C_6  and  N_7
REMARK    7  A    between atoms: N_7  and  C_8
REMARK    8  A    between atoms: N_7  and  C_9
REMARK    9  A    between atoms: N_7  and  C_10
REMARK                            x       y       z     vdW  Elec       q    Type
REMARK                         _______ _______ _______ _____ _____    ______ ____
ROOT
ATOM      1  C   UNL     1      42.640 -39.096 -30.055  0.00  0.00    -0.068 C 
ENDROOT
BRANCH   1   2
ATOM      2  C   UNL     1      42.256 -38.179 -31.232  0.00  0.00    -0.055 C 
BRANCH   2   3
ATOM      3  C   UNL     1      41.478 -36.955 -30.743  0.00  0.00    -0.053 C 
BRANCH   3   5
ATOM      4  C   UNL     1      38.971 -36.483 -30.846  0.00  0.00    -0.065 C 
ATOM      5  C   UNL     1      40.086 -37.294 -30.206  0.00  0.00    -0.056 C 
ENDBRANCH   3   5
ENDBRANCH   2   3
ENDBRANCH   1   2
BRANCH   1   6
ATOM      6  C   UNL     1      44.375 -39.459 -30.082  0.00  0.00    -0.089 C 
BRANCH   6   7
ATOM      7  N   UNL     1      45.019 -40.058 -29.606  0.00  0.00    +0.374 N 
ATOM      8  C   UNL     1      44.660 -40.844 -30.110  0.00  0.00    -0.101 C 
ATOM      9  C   UNL     1      45.663 -40.657 -29.130  0.00  0.00    -0.101 C 
ATOM     10  C   UNL     1      45.378 -39.272 -29.102  0.00  0.00    -0.101 C 
ENDBRANCH   6   7
ENDBRANCH   1   6
TORSDOF 5
ENDMDL
MODEL 2
REMARK VINA RESULT:    -4.713      3.274      6.335
REMARK INTER + INTRA:          -3.983
REMARK INTER:                  -5.505
REMARK INTRA:                   1.522
REMARK UNBOUND:                 1.557
REMARK  Name = cpd224.pdb
REMARK  9 active torsions:
REMARK  status: ('A' for Active; 'I' for Inactive)
REMARK    1  A    between atoms: C_1  and  C_2
REMARK    2  A    between atoms: C_2  and  C_3
REMARK    3  A    between atoms: C_3  and  C_4
REMARK    4  A    between atoms: C_4  and  C_5
REMARK    5  A    between atoms: C_5  and  C_6
REMARK    6  A    between atoms: C_6  and  N_7
REMARK    7  A    between atoms: N_7  and  C_8
REMARK    8  A    between atoms: N_7  and  C_9
REMARK    9  A    between atoms: N_7  and  C_10
REMARK                            x       y       z     vdW  Elec       q    Type
REMARK                         _______ _______ _______ _____ _____    ______ ____
ROOT
ATOM      1  C   UNL     1      40.147 -36.030 -32.404  0.00  0.00    -0.068 C 
ENDROOT
BRANCH   1   2
ATOM      2  C   UNL     1      41.481 -35.395 -31.970  0.00  0.00    -0.055 C 
BRANCH   2   3
ATOM      3  C   UNL     1      42.356 -36.407 -31.226  0.00  0.00    -0.053 C 
BRANCH   3   5
ATOM      4  C   UNL     1      42.849 -38.888 -30.878  0.00  0.00    -0.065 C 
ATOM      5  C   UNL     1      42.258 -37.825 -31.790  0.00  0.00    -0.056 C 
ENDBRANCH   3   5
ENDBRANCH   2   3
ENDBRANCH   1   2
BRANCH   1   6
ATOM      6  C   UNL     1      38.905 -35.794 -31.161  0.00  0.00    -0.089 C 
BRANCH   6   7
ATOM      7  N   UNL     1      37.998 -36.150 -30.936  0.00  0.00    +0.374 N 
ATOM      8  C   UNL     1      37.577 -35.362 -31.385  0.00  0.00    -0.101 C 
ATOM      9  C   UNL     1      37.091 -36.506 -30.711  0.00  0.00    -0.101 C 
ATOM     10  C   UNL     1      38.419 -36.938 -30.487  0.00  0.00    -0.101 C 
ENDBRANCH   6   7
ENDBRANCH   1   6
TORSDOF 5
ENDMDL
MODEL 3
REMARK VINA RESULT:    -4.687      2.450      5.760
REMARK INTER + INTRA:          -3.952
REMARK INTER:                  -5.648
REMARK INTRA:                   1.696
REMARK UNBOUND:                 1.557
REMARK  Name = cpd224.pdb
REMARK  9 active torsions:
REMARK  status: ('A' for Active; 'I' for Inactive)
REMARK    1  A    between atoms: C_1  and  C_2
REMARK    2  A    between atoms: C_2  and  C_3
REMARK    3  A    between atoms: C_3  and  C_4
REMARK    4  A    between atoms: C_4  and  C_5
REMARK    5  A    between atoms: C_5  and  C_6
REMARK    6  A    between atoms: C_6  and  N_7
REMARK    7  A    between atoms: N_7  and  C_8
REMARK    8  A    between atoms: N_7  and  C_9
REMARK    9  A    between atoms: N_7  and  C_10
REMARK                            x       y       z     vdW  Elec       q    Type
REMARK                         _______ _______ _______ _____ _____    ______ ____
ROOT
ATOM      1  C   UNL     1      41.789 -37.213 -32.376  0.00  0.00    -0.068 C 
ENDROOT
BRANCH   1   2
ATOM      2  C   UNL     1      42.927 -37.653 -31.436  0.00  0.00    -0.055 C 
BRANCH   2   3
ATOM      3  C   UNL     1      42.543 -38.917 -30.663  0.00  0.00    -0.053 C 
BRANCH   3   5
ATOM      4  C   UNL     1      44.324 -40.703 -30.262  0.00  0.00    -0.065 C 
ATOM      5  C   UNL     1      43.657 -39.435 -29.752  0.00  0.00    -0.056 C 
ENDBRANCH   3   5
ENDBRANCH   2   3
ENDBRANCH   1   2
BRANCH   1   6
ATOM      6  C   UNL     1      40.544 -36.322 -31.483  0.00  0.00    -0.089 C 
BRANCH   6   7
ATOM      7  N   UNL     1      39.553 -36.196 -31.511  0.00  0.00    +0.374 N 
ATOM      8  C   UNL     1      39.442 -36.916 -30.826  0.00  0.00    -0.101 C 
ATOM      9  C   UNL     1      38.561 -36.069 -31.539  0.00  0.00    -0.101 C 
ATOM     10  C   UNL     1      39.664 -35.476 -32.196  0.00  0.00    -0.101 C 
ENDBRANCH   6   7
ENDBRANCH   1   6
TORSDOF 5
ENDMDL
MODEL 4
REMARK VINA RESULT:    -4.485      4.086      5.216
REMARK INTER + INTRA:          -3.715
REMARK INTER:                  -5.242
REMARK INTRA:                   1.528
REMARK UNBOUND:                 1.557
REMARK  Name = cpd224.pdb
REMARK  9 active torsions:
REMARK  status: ('A' for Active; 'I' for Inactive)
REMARK    1  A    between atoms: C_1  and  C_2
REMARK    2  A    between atoms: C_2  and  C_3
REMARK    3  A    between atoms: C_3  and  C_4
REMARK    4  A    between atoms: C_4  and  C_5
REMARK    5  A    between atoms: C_5  and  C_6
REMARK    6  A    between atoms: C_6  and  N_7
REMARK    7  A    between atoms: N_7  and  C_8
REMARK    8  A    between atoms: N_7  and  C_9
REMARK    9  A    between atoms: N_7  and  C_10
REMARK                            x       y       z     vdW  Elec       q    Type
REMARK                         _______ _______ _______ _____ _____    ______ ____
ROOT
ATOM      1  C   UNL     1      38.793 -35.916 -31.328  0.00  0.00    -0.068 C 
ENDROOT
BRANCH   1   2
ATOM      2  C   UNL     1      37.926 -36.919 -30.546  0.00  0.00    -0.055 C 
BRANCH   2   3
ATOM      3  C   UNL     1      36.872 -36.196 -29.704  0.00  0.00    -0.053 C 
BRANCH   3   5
ATOM      4  C   UNL     1      37.331 -37.851 -27.814  0.00  0.00    -0.065 C 
ATOM      5  C   UNL     1      36.286 -37.062 -28.588  0.00  0.00    -0.056 C 
ENDBRANCH   3   5
ENDBRANCH   2   3
ENDBRANCH   1   2
BRANCH   1   6
ATOM      6  C   UNL     1      40.459 -36.503 -31.471  0.00  0.00    -0.089 C 
BRANCH   6   7
ATOM      7  N   UNL     1      41.381 -36.121 -31.544  0.00  0.00    +0.374 N 
ATOM      8  C   UNL     1      41.498 -36.216 -30.556  0.00  0.00    -0.101 C 
ATOM      9  C   UNL     1      42.302 -35.740 -31.617  0.00  0.00    -0.101 C 
ATOM     10  C   UNL     1      41.263 -36.026 -32.533  0.00  0.00    -0.101 C 
ENDBRANCH   6   7
ENDBRANCH   1   6
TORSDOF 5
ENDMDL
MODEL 5
REMARK VINA RESULT:    -4.470     20.019     21.271
REMARK INTER + INTRA:          -3.697
REMARK INTER:                  -5.162
REMARK INTRA:                   1.465
REMARK UNBOUND:                 1.557
REMARK  Name = cpd224.pdb
REMARK  9 active torsions:
REMARK  status: ('A' for Active; 'I' for Inactive)
REMARK    1  A    between atoms: C_1  and  C_2
REMARK    2  A    between atoms: C_2  and  C_3
REMARK    3  A    between atoms: C_3  and  C_4
REMARK    4  A    between atoms: C_4  and  C_5
REMARK    5  A    between atoms: C_5  and  C_6
REMARK    6  A    between atoms: C_6  and  N_7
REMARK    7  A    between atoms: N_7  and  C_8
REMARK    8  A    between atoms: N_7  and  C_9
REMARK    9  A    between atoms: N_7  and  C_10
REMARK                            x       y       z     vdW  Elec       q    Type
REMARK                         _______ _______ _______ _____ _____    ______ ____
ROOT
ATOM      1  C   UNL     1      45.330 -22.088 -42.816  0.00  0.00    -0.068 C 
ENDROOT
BRANCH   1   2
ATOM      2  C   UNL     1      44.177 -21.207 -42.301  0.00  0.00    -0.055 C 
BRANCH   2   3
ATOM      3  C   UNL     1      44.171 -19.846 -43.000  0.00  0.00    -0.053 C 
BRANCH   3   5
ATOM      4  C   UNL     1      44.903 -19.002 -40.705  0.00  0.00    -0.065 C 
ATOM      5  C   UNL     1      44.241 -18.665 -42.031  0.00  0.00    -0.056 C 
ENDBRANCH   3   5
ENDBRANCH   2   3
ENDBRANCH   1   2
BRANCH   1   6
ATOM      6  C   UNL     1      46.651 -22.148 -41.635  0.00  0.00    -0.089 C 
BRANCH   6   7
ATOM      7  N   UNL     1      47.513 -22.637 -41.504  0.00  0.00    +0.374 N 
ATOM      8  C   UNL     1      47.019 -23.388 -41.064  0.00  0.00    -0.101 C 
ATOM      9  C   UNL     1      48.374 -23.127 -41.373  0.00  0.00    -0.101 C 
ATOM     10  C   UNL     1      48.006 -21.887 -41.944  0.00  0.00    -0.101 C 
ENDBRANCH   6   7
ENDBRANCH   1   6
TORSDOF 5
ENDMDL
MODEL 6
REMARK VINA RESULT:    -4.439     31.701     32.897
REMARK INTER + INTRA:          -3.661
REMARK INTER:                  -5.143
REMARK INTRA:                   1.482
REMARK UNBOUND:                 1.557
REMARK  Name = cpd224.pdb
REMARK  9 active torsions:
REMARK  status: ('A' for Active; 'I' for Inactive)
REMARK    1  A    between atoms: C_1  and  C_2
REMARK    2  A    between atoms: C_2  and  C_3
REMARK    3  A    between atoms: C_3  and  C_4
REMARK    4  A    between atoms: C_4  and  C_5
REMARK    5  A    between atoms: C_5  and  C_6
REMARK    6  A    between atoms: C_6  and  N_7
REMARK    7  A    between atoms: N_7  and  C_8
REMARK    8  A    between atoms: N_7  and  C_9
REMARK    9  A    between atoms: N_7  and  C_10
REMARK                            x       y       z     vdW  Elec       q    Type
REMARK                         _______ _______ _______ _____ _____    ______ ____
ROOT
ATOM      1  C   UNL     1      62.237 -24.668  -8.220  0.00  0.00    -0.068 C 
ENDROOT
BRANCH   1   2
ATOM      2  C   UNL     1      62.346 -24.694  -9.756  0.00  0.00    -0.055 C 
BRANCH   2   3
ATOM      3  C   UNL     1      63.363 -23.664 -10.253  0.00  0.00    -0.053 C 
BRANCH   3   5
ATOM      4  C   UNL     1      62.785 -21.178 -10.193  0.00  0.00    -0.065 C 
ATOM      5  C   UNL     1      63.361 -22.367  -9.441  0.00  0.00    -0.056 C 
ENDBRANCH   3   5
ENDBRANCH   2   3
ENDBRANCH   1   2
BRANCH   1   6
ATOM      6  C   UNL     1      63.016 -26.093  -7.511  0.00  0.00    -0.089 C 
BRANCH   6   7
ATOM      7  N   UNL     1      63.141 -26.502  -6.607  0.00  0.00    +0.374 N 
ATOM      8  C   UNL     1      62.311 -27.044  -6.737  0.00  0.00    -0.101 C 
ATOM      9  C   UNL     1      63.267 -26.911  -5.703  0.00  0.00    -0.101 C 
ATOM     10  C   UNL     1      63.972 -25.960  -6.477  0.00  0.00    -0.101 C 
ENDBRANCH   6   7
ENDBRANCH   1   6
TORSDOF 5
ENDMDL
MODEL 7
REMARK VINA RESULT:    -4.436      4.343      7.187
REMARK INTER + INTRA:          -3.657
REMARK INTER:                  -5.158
REMARK INTRA:                   1.501
REMARK UNBOUND:                 1.557
REMARK  Name = cpd224.pdb
REMARK  9 active torsions:
REMARK  status: ('A' for Active; 'I' for Inactive)
REMARK    1  A    between atoms: C_1  and  C_2
REMARK    2  A    between atoms: C_2  and  C_3
REMARK    3  A    between atoms: C_3  and  C_4
REMARK    4  A    between atoms: C_4  and  C_5
REMARK    5  A    between atoms: C_5  and  C_6
REMARK    6  A    between atoms: C_6  and  N_7
REMARK    7  A    between atoms: N_7  and  C_8
REMARK    8  A    between atoms: N_7  and  C_9
REMARK    9  A    between atoms: N_7  and  C_10
REMARK                            x       y       z     vdW  Elec       q    Type
REMARK                         _______ _______ _______ _____ _____    ______ ____
ROOT
ATOM      1  C   UNL     1      38.815 -35.768 -32.206  0.00  0.00    -0.068 C 
ENDROOT
BRANCH   1   2
ATOM      2  C   UNL     1      39.892 -34.729 -31.842  0.00  0.00    -0.055 C 
BRANCH   2   3
ATOM      3  C   UNL     1      41.293 -35.340 -31.918  0.00  0.00    -0.053 C 
BRANCH   3   5
ATOM      4  C   UNL     1      42.202 -37.722 -32.054  0.00  0.00    -0.065 C 
ATOM      5  C   UNL     1      41.343 -36.650 -32.706  0.00  0.00    -0.056 C 
ENDBRANCH   3   5
ENDBRANCH   2   3
ENDBRANCH   1   2
BRANCH   1   6
ATOM      6  C   UNL     1      37.609 -35.904 -30.914  0.00  0.00    -0.089 C 
BRANCH   6   7
ATOM      7  N   UNL     1      36.640 -36.131 -30.819  0.00  0.00    +0.374 N 
ATOM      8  C   UNL     1      36.872 -37.102 -30.767  0.00  0.00    -0.101 C 
ATOM      9  C   UNL     1      35.671 -36.357 -30.724  0.00  0.00    -0.101 C 
ATOM     10  C   UNL     1      36.408 -35.159 -30.871  0.00  0.00    -0.101 C 
ENDBRANCH   6   7
ENDBRANCH   1   6
TORSDOF 5
ENDMDL
MODEL 8
REMARK VINA RESULT:    -4.390     20.371     21.392
REMARK INTER + INTRA:          -3.603
REMARK INTER:                  -4.980
REMARK INTRA:                   1.378
REMARK UNBOUND:                 1.557
REMARK  Name = cpd224.pdb
REMARK  9 active torsions:
REMARK  status: ('A' for Active; 'I' for Inactive)
REMARK    1  A    between atoms: C_1  and  C_2
REMARK    2  A    between atoms: C_2  and  C_3
REMARK    3  A    between atoms: C_3  and  C_4
REMARK    4  A    between atoms: C_4  and  C_5
REMARK    5  A    between atoms: C_5  and  C_6
REMARK    6  A    between atoms: C_6  and  N_7
REMARK    7  A    between atoms: N_7  and  C_8
REMARK    8  A    between atoms: N_7  and  C_9
REMARK    9  A    between atoms: N_7  and  C_10
REMARK                            x       y       z     vdW  Elec       q    Type
REMARK                         _______ _______ _______ _____ _____    ______ ____
ROOT
ATOM      1  C   UNL     1      47.063 -20.158 -41.686  0.00  0.00    -0.068 C 
ENDROOT
BRANCH   1   2
ATOM      2  C   UNL     1      45.893 -19.530 -40.905  0.00  0.00    -0.055 C 
BRANCH   2   3
ATOM      3  C   UNL     1      44.838 -18.963 -41.857  0.00  0.00    -0.053 C 
BRANCH   3   5
ATOM      4  C   UNL     1      43.471 -21.108 -42.079  0.00  0.00    -0.065 C 
ATOM      5  C   UNL     1      44.241 -20.012 -42.797  0.00  0.00    -0.056 C 
ENDBRANCH   3   5
ENDBRANCH   2   3
ENDBRANCH   1   2
BRANCH   1   6
ATOM      6  C   UNL     1      47.139 -21.906 -41.405  0.00  0.00    -0.089 C 
BRANCH   6   7
ATOM      7  N   UNL     1      47.538 -22.715 -41.838  0.00  0.00    +0.374 N 
ATOM      8  C   UNL     1      48.358 -22.612 -41.275  0.00  0.00    -0.101 C 
ATOM      9  C   UNL     1      47.937 -23.523 -42.271  0.00  0.00    -0.101 C 
ATOM     10  C   UNL     1      46.718 -22.818 -42.401  0.00  0.00    -0.101 C 
ENDBRANCH   6   7
ENDBRANCH   1   6
TORSDOF 5
ENDMDL
MODEL 9
REMARK VINA RESULT:    -4.283     32.245     34.031
REMARK INTER + INTRA:          -3.477
REMARK INTER:                  -4.879
REMARK INTRA:                   1.401
REMARK UNBOUND:                 1.557
REMARK  Name = cpd224.pdb
REMARK  9 active torsions:
REMARK  status: ('A' for Active; 'I' for Inactive)
REMARK    1  A    between atoms: C_1  and  C_2
REMARK    2  A    between atoms: C_2  and  C_3
REMARK    3  A    between atoms: C_3  and  C_4
REMARK    4  A    between atoms: C_4  and  C_5
REMARK    5  A    between atoms: C_5  and  C_6
REMARK    6  A    between atoms: C_6  and  N_7
REMARK    7  A    between atoms: N_7  and  C_8
REMARK    8  A    between atoms: N_7  and  C_9
REMARK    9  A    between atoms: N_7  and  C_10
REMARK                            x       y       z     vdW  Elec       q    Type
REMARK                         _______ _______ _______ _____ _____    ______ ____
ROOT
ATOM      1  C   UNL     1      62.313 -24.903  -6.833  0.00  0.00    -0.068 C 
ENDROOT
BRANCH   1   2
ATOM      2  C   UNL     1      62.128 -25.760  -8.100  0.00  0.00    -0.055 C 
BRANCH   2   3
ATOM      3  C   UNL     1      61.962 -24.879  -9.340  0.00  0.00    -0.053 C 
BRANCH   3   5
ATOM      4  C   UNL     1      63.405 -22.875  -9.985  0.00  0.00    -0.065 C 
ATOM      5  C   UNL     1      63.290 -24.389  -9.920  0.00  0.00    -0.056 C 
ENDBRANCH   3   5
ENDBRANCH   2   3
ENDBRANCH   1   2
BRANCH   1   6
ATOM      6  C   UNL     1      64.000 -24.935  -6.293  0.00  0.00    -0.089 C 
BRANCH   6   7
ATOM      7  N   UNL     1      64.577 -24.471  -5.620  0.00  0.00    +0.374 N 
ATOM      8  C   UNL     1      64.781 -23.756  -6.288  0.00  0.00    -0.101 C 
ATOM      9  C   UNL     1      65.153 -24.008  -4.947  0.00  0.00    -0.101 C 
ATOM     10  C   UNL     1      64.372 -25.187  -4.952  0.00  0.00    -0.101 C 
ENDBRANCH   6   7
ENDBRANCH   1   6
TORSDOF 5
ENDMDL
MODEL 10
REMARK VINA RESULT:    -4.244      4.568      6.821
REMARK INTER + INTRA:          -3.432
REMARK INTER:                  -5.049
REMARK INTRA:                   1.617
REMARK UNBOUND:                 1.557
REMARK  Name = cpd224.pdb
REMARK  9 active torsions:
REMARK  status: ('A' for Active; 'I' for Inactive)
REMARK    1  A    between atoms: C_1  and  C_2
REMARK    2  A    between atoms: C_2  and  C_3
REMARK    3  A    between atoms: C_3  and  C_4
REMARK    4  A    between atoms: C_4  and  C_5
REMARK    5  A    between atoms: C_5  and  C_6
REMARK    6  A    between atoms: C_6  and  N_7
REMARK    7  A    between atoms: N_7  and  C_8
REMARK    8  A    between atoms: N_7  and  C_9
REMARK    9  A    between atoms: N_7  and  C_10
REMARK                            x       y       z     vdW  Elec       q    Type
REMARK                         _______ _______ _______ _____ _____    ______ ____
ROOT
ATOM      1  C   UNL     1      37.967 -36.601 -30.649  0.00  0.00    -0.068 C 
ENDROOT
BRANCH   1   2
ATOM      2  C   UNL     1      39.488 -36.805 -30.773  0.00  0.00    -0.055 C 
BRANCH   2   3
ATOM      3  C   UNL     1      40.024 -36.180 -32.063  0.00  0.00    -0.053 C 
BRANCH   3   5
ATOM      4  C   UNL     1      42.528 -36.026 -31.595  0.00  0.00    -0.065 C 
ATOM      5  C   UNL     1      41.428 -36.657 -32.433  0.00  0.00    -0.056 C 
ENDBRANCH   3   5
ENDBRANCH   2   3
ENDBRANCH   1   2
BRANCH   1   6
ATOM      6  C   UNL     1      37.439 -36.814 -28.970  0.00  0.00    -0.089 C 
BRANCH   6   7
ATOM      7  N   UNL     1      36.681 -37.239 -28.475  0.00  0.00    +0.374 N 
ATOM      8  C   UNL     1      36.047 -36.579 -28.880  0.00  0.00    -0.101 C 
ATOM      9  C   UNL     1      35.923 -37.663 -27.980  0.00  0.00    -0.101 C 
ATOM     10  C   UNL     1      37.314 -37.898 -28.070  0.00  0.00    -0.101 C 
ENDBRANCH   6   7
ENDBRANCH   1   6
TORSDOF 5
ENDMDL
MODEL 11
REMARK VINA RESULT:    -4.219      4.277      5.545
REMARK INTER + INTRA:          -3.403
REMARK INTER:                  -4.919
REMARK INTRA:                   1.516
REMARK UNBOUND:                 1.557
REMARK  Name = cpd224.pdb
REMARK  9 active torsions:
REMARK  status: ('A' for Active; 'I' for Inactive)
REMARK    1  A    between atoms: C_1  and  C_2
REMARK    2  A    between atoms: C_2  and  C_3
REMARK    3  A    between atoms: C_3  and  C_4
REMARK    4  A    between atoms: C_4  and  C_5
REMARK    5  A    between atoms: C_5  and  C_6
REMARK    6  A    between atoms: C_6  and  N_7
REMARK    7  A    between atoms: N_7  and  C_8
REMARK    8  A    between atoms: N_7  and  C_9
REMARK    9  A    between atoms: N_7  and  C_10
REMARK                            x       y       z     vdW  Elec       q    Type
REMARK                         _______ _______ _______ _____ _____    ______ ____
ROOT
ATOM      1  C   UNL     1      38.438 -36.761 -31.296  0.00  0.00    -0.068 C 
ENDROOT
BRANCH   1   2
ATOM      2  C   UNL     1      38.534 -35.250 -31.578  0.00  0.00    -0.055 C 
BRANCH   2   3
ATOM      3  C   UNL     1      39.977 -34.836 -31.872  0.00  0.00    -0.053 C 
BRANCH   3   5
ATOM      4  C   UNL     1      42.025 -36.357 -31.986  0.00  0.00    -0.065 C 
ATOM      5  C   UNL     1      40.757 -35.878 -32.675  0.00  0.00    -0.056 C 
ENDBRANCH   3   5
ENDBRANCH   2   3
ENDBRANCH   1   2
BRANCH   1   6
ATOM      6  C   UNL     1      38.480 -37.079 -29.553  0.00  0.00    -0.089 C 
BRANCH   6   7
ATOM      7  N   UNL     1      38.650 -37.851 -28.939  0.00  0.00    +0.374 N 
ATOM      8  C   UNL     1      37.681 -37.864 -28.689  0.00  0.00    -0.101 C 
ATOM      9  C   UNL     1      38.819 -38.622 -28.326  0.00  0.00    -0.101 C 
ATOM     10  C   UNL     1      39.618 -37.837 -29.189  0.00  0.00    -0.101 C 
ENDBRANCH   6   7
ENDBRANCH   1   6
TORSDOF 5
ENDMDL
MODEL 12
REMARK VINA RESULT:    -4.184      3.889      5.456
REMARK INTER + INTRA:          -3.361
REMARK INTER:                  -4.908
REMARK INTRA:                   1.547
REMARK UNBOUND:                 1.557
REMARK  Name = cpd224.pdb
REMARK  9 active torsions:
REMARK  status: ('A' for Active; 'I' for Inactive)
REMARK    1  A    between atoms: C_1  and  C_2
REMARK    2  A    between atoms: C_2  and  C_3
REMARK    3  A    between atoms: C_3  and  C_4
REMARK    4  A    between atoms: C_4  and  C_5
REMARK    5  A    between atoms: C_5  and  C_6
REMARK    6  A    between atoms: C_6  and  N_7
REMARK    7  A    between atoms: N_7  and  C_8
REMARK    8  A    between atoms: N_7  and  C_9
REMARK    9  A    between atoms: N_7  and  C_10
REMARK                            x       y       z     vdW  Elec       q    Type
REMARK                         _______ _______ _______ _____ _____    ______ ____
ROOT
ATOM      1  C   UNL     1      38.628 -37.020 -30.623  0.00  0.00    -0.068 C 
ENDROOT
BRANCH   1   2
ATOM      2  C   UNL     1      37.445 -36.033 -30.598  0.00  0.00    -0.055 C 
BRANCH   2   3
ATOM      3  C   UNL     1      36.522 -36.312 -29.409  0.00  0.00    -0.053 C 
BRANCH   3   5
ATOM      4  C   UNL     1      35.199 -34.447 -30.545  0.00  0.00    -0.065 C 
ATOM      5  C   UNL     1      35.252 -35.461 -29.413  0.00  0.00    -0.056 C 
ENDBRANCH   3   5
ENDBRANCH   2   3
ENDBRANCH   1   2
BRANCH   1   6
ATOM      6  C   UNL     1      40.122 -36.198 -31.106  0.00  0.00    -0.089 C 
BRANCH   6   7
ATOM      7  N   UNL     1      40.958 -36.407 -31.613  0.00  0.00    +0.374 N 
ATOM      8  C   UNL     1      41.330 -36.870 -30.808  0.00  0.00    -0.101 C 
ATOM      9  C   UNL     1      41.794 -36.616 -32.120  0.00  0.00    -0.101 C 
ATOM     10  C   UNL     1      40.586 -35.945 -32.418  0.00  0.00    -0.101 C 
ENDBRANCH   6   7
ENDBRANCH   1   6
TORSDOF 5
ENDMDL
MODEL 13
REMARK VINA RESULT:    -4.053     31.987     33.783
REMARK INTER + INTRA:          -3.206
REMARK INTER:                  -4.716
REMARK INTRA:                   1.509
REMARK UNBOUND:                 1.557
REMARK  Name = cpd224.pdb
REMARK  9 active torsions:
REMARK  status: ('A' for Active; 'I' for Inactive)
REMARK    1  A    between atoms: C_1  and  C_2
REMARK    2  A    between atoms: C_2  and  C_3
REMARK    3  A    between atoms: C_3  and  C_4
REMARK    4  A    between atoms: C_4  and  C_5
REMARK    5  A    between atoms: C_5  and  C_6
REMARK    6  A    between atoms: C_6  and  N_7
REMARK    7  A    between atoms: N_7  and  C_8
REMARK    8  A    between atoms: N_7  and  C_9
REMARK    9  A    between atoms: N_7  and  C_10
REMARK                            x       y       z     vdW  Elec       q    Type
REMARK                         _______ _______ _______ _____ _____    ______ ____
ROOT
ATOM      1  C   UNL     1      63.314 -23.572  -6.446  0.00  0.00    -0.068 C 
ENDROOT
BRANCH   1   2
ATOM      2  C   UNL     1      64.031 -22.843  -7.598  0.00  0.00    -0.055 C 
BRANCH   2   3
ATOM      3  C   UNL     1      63.177 -22.848  -8.868  0.00  0.00    -0.053 C 
BRANCH   3   5
ATOM      4  C   UNL     1      62.160 -25.060  -9.635  0.00  0.00    -0.065 C 
ATOM      5  C   UNL     1      63.347 -24.113  -9.710  0.00  0.00    -0.056 C 
ENDBRANCH   3   5
ENDBRANCH   2   3
ENDBRANCH   1   2
BRANCH   1   6
ATOM      6  C   UNL     1      64.139 -25.091  -6.054  0.00  0.00    -0.089 C 
BRANCH   6   7
ATOM      7  N   UNL     1      64.110 -26.050  -6.336  0.00  0.00    +0.374 N 
ATOM      8  C   UNL     1      65.049 -25.980  -6.672  0.00  0.00    -0.101 C 
ATOM      9  C   UNL     1      64.080 -27.009  -6.618  0.00  0.00    -0.101 C 
ATOM     10  C   UNL     1      63.170 -26.120  -6.000  0.00  0.00    -0.101 C 
ENDBRANCH   6   7
ENDBRANCH   1   6
TORSDOF 5
ENDMDL
MODEL 14
REMARK VINA RESULT:    -4.043      4.170      5.686
REMARK INTER + INTRA:          -3.195
REMARK INTER:                  -4.852
REMARK INTRA:                   1.657
REMARK UNBOUND:                 1.557
REMARK  Name = cpd224.pdb
REMARK  9 active torsions:
REMARK  status: ('A' for Active; 'I' for Inactive)
REMARK    1  A    between atoms: C_1  and  C_2
REMARK    2  A    between atoms: C_2  and  C_3
REMARK    3  A    between atoms: C_3  and  C_4
REMARK    4  A    between atoms: C_4  and  C_5
REMARK    5  A    between atoms: C_5  and  C_6
REMARK    6  A    between atoms: C_6  and  N_7
REMARK    7  A    between atoms: N_7  and  C_8
REMARK    8  A    between atoms: N_7  and  C_9
REMARK    9  A    between atoms: N_7  and  C_10
REMARK                            x       y       z     vdW  Elec       q    Type
REMARK                         _______ _______ _______ _____ _____    ______ ____
ROOT
ATOM      1  C   UNL     1      38.314 -36.974 -29.951  0.00  0.00    -0.068 C 
ENDROOT
BRANCH   1   2
ATOM      2  C   UNL     1      38.439 -37.860 -28.696  0.00  0.00    -0.055 C 
BRANCH   2   3
ATOM      3  C   UNL     1      37.206 -38.750 -28.527  0.00  0.00    -0.053 C 
BRANCH   3   5
ATOM      4  C   UNL     1      36.416 -41.118 -29.064  0.00  0.00    -0.065 C 
ATOM      5  C   UNL     1      37.533 -40.244 -28.515  0.00  0.00    -0.056 C 
ENDBRANCH   3   5
ENDBRANCH   2   3
ENDBRANCH   1   2
BRANCH   1   6
ATOM      6  C   UNL     1      39.862 -36.878 -30.809  0.00  0.00    -0.089 C 
BRANCH   6   7
ATOM      7  N   UNL     1      40.447 -36.177 -31.217  0.00  0.00    +0.374 N 
ATOM      8  C   UNL     1      41.186 -36.430 -30.593  0.00  0.00    -0.101 C 
ATOM      9  C   UNL     1      41.031 -35.475 -31.624  0.00  0.00    -0.101 C 
ATOM     10  C   UNL     1      39.707 -35.923 -31.840  0.00  0.00    -0.101 C 
ENDBRANCH   6   7
ENDBRANCH   1   6
TORSDOF 5
ENDMDL
MODEL 15
REMARK VINA RESULT:    -4.038      5.559      8.202
REMARK INTER + INTRA:          -3.189
REMARK INTER:                  -4.646
REMARK INTRA:                   1.456
REMARK UNBOUND:                 1.557
REMARK  Name = cpd224.pdb
REMARK  9 active torsions:
REMARK  status: ('A' for Active; 'I' for Inactive)
REMARK    1  A    between atoms: C_1  and  C_2
REMARK    2  A    between atoms: C_2  and  C_3
REMARK    3  A    between atoms: C_3  and  C_4
REMARK    4  A    between atoms: C_4  and  C_5
REMARK    5  A    between atoms: C_5  and  C_6
REMARK    6  A    between atoms: C_6  and  N_7
REMARK    7  A    between atoms: N_7  and  C_8
REMARK    8  A    between atoms: N_7  and  C_9
REMARK    9  A    between atoms: N_7  and  C_10
REMARK                            x       y       z     vdW  Elec       q    Type
REMARK                         _______ _______ _______ _____ _____    ______ ____
ROOT
ATOM      1  C   UNL     1      37.125 -37.030 -30.633  0.00  0.00    -0.068 C 
ENDROOT
BRANCH   1   2
ATOM      2  C   UNL     1      38.486 -37.022 -29.911  0.00  0.00    -0.055 C 
BRANCH   2   3
ATOM      3  C   UNL     1      39.641 -37.007 -30.915  0.00  0.00    -0.053 C 
BRANCH   3   5
ATOM      4  C   UNL     1      40.478 -36.092 -33.147  0.00  0.00    -0.065 C 
ATOM      5  C   UNL     1      39.484 -35.946 -32.006  0.00  0.00    -0.056 C 
ENDBRANCH   3   5
ENDBRANCH   2   3
ENDBRANCH   1   2
BRANCH   1   6
ATOM      6  C   UNL     1      36.186 -35.585 -30.220  0.00  0.00    -0.089 C 
BRANCH   6   7
ATOM      7  N   UNL     1      35.437 -35.046 -30.606  0.00  0.00    +0.374 N 
ATOM      8  C   UNL     1      36.096 -34.374 -30.945  0.00  0.00    -0.101 C 
ATOM      9  C   UNL     1      34.689 -34.508 -30.993  0.00  0.00    -0.101 C 
ATOM     10  C   UNL     1      34.779 -35.719 -30.268  0.00  0.00    -0.101 C 
ENDBRANCH   6   7
ENDBRANCH   1   6
TORSDOF 5
ENDMDL
MODEL 16
REMARK VINA RESULT:    -4.015     19.741     20.660
REMARK INTER + INTRA:          -3.162
REMARK INTER:                  -4.638
REMARK INTRA:                   1.476
REMARK UNBOUND:                 1.557
REMARK  Name = cpd224.pdb
REMARK  9 active torsions:
REMARK  status: ('A' for Active; 'I' for Inactive)
REMARK    1  A    between atoms: C_1  and  C_2
REMARK    2  A    between atoms: C_2  and  C_3
REMARK    3  A    between atoms: C_3  and  C_4
REMARK    4  A    between atoms: C_4  and  C_5
REMARK    5  A    between atoms: C_5  and  C_6
REMARK    6  A    between atoms: C_6  and  N_7
REMARK    7  A    between atoms: N_7  and  C_8
REMARK    8  A    between atoms: N_7  and  C_9
REMARK    9  A    between atoms: N_7  and  C_10
REMARK                            x       y       z     vdW  Elec       q    Type
REMARK                         _______ _______ _______ _____ _____    ______ ____
ROOT
ATOM      1  C   UNL     1      45.382 -22.190 -42.703  0.00  0.00    -0.068 C 
ENDROOT
BRANCH   1   2
ATOM      2  C   UNL     1      44.415 -21.000 -42.559  0.00  0.00    -0.055 C 
BRANCH   2   3
ATOM      3  C   UNL     1      43.235 -21.357 -41.652  0.00  0.00    -0.053 C 
BRANCH   3   5
ATOM      4  C   UNL     1      43.790 -20.896 -39.203  0.00  0.00    -0.065 C 
ATOM      5  C   UNL     1      43.080 -20.414 -40.458  0.00  0.00    -0.056 C 
ENDBRANCH   3   5
ENDBRANCH   2   3
ENDBRANCH   1   2
BRANCH   1   6
ATOM      6  C   UNL     1      46.785 -21.992 -41.639  0.00  0.00    -0.089 C 
BRANCH   6   7
ATOM      7  N   UNL     1      47.647 -22.461 -41.446  0.00  0.00    +0.374 N 
ATOM      8  C   UNL     1      47.161 -23.120 -40.873  0.00  0.00    -0.101 C 
ATOM      9  C   UNL     1      48.509 -22.929 -41.253  0.00  0.00    -0.101 C 
ATOM     10  C   UNL     1      48.134 -21.802 -42.019  0.00  0.00    -0.101 C 
ENDBRANCH   6   7
ENDBRANCH   1   6
TORSDOF 5
ENDMDL
MODEL 17
REMARK VINA RESULT:    -3.816     30.620     31.363
REMARK INTER + INTRA:          -2.928
REMARK INTER:                  -4.398
REMARK INTRA:                   1.470
REMARK UNBOUND:                 1.557
REMARK  Name = cpd224.pdb
REMARK  9 active torsions:
REMARK  status: ('A' for Active; 'I' for Inactive)
REMARK    1  A    between atoms: C_1  and  C_2
REMARK    2  A    between atoms: C_2  and  C_3
REMARK    3  A    between atoms: C_3  and  C_4
REMARK    4  A    between atoms: C_4  and  C_5
REMARK    5  A    between atoms: C_5  and  C_6
REMARK    6  A    between atoms: C_6  and  N_7
REMARK    7  A    between atoms: N_7  and  C_8
REMARK    8  A    between atoms: N_7  and  C_9
REMARK    9  A    between atoms: N_7  and  C_10
REMARK                            x       y       z     vdW  Elec       q    Type
REMARK                         _______ _______ _______ _____ _____    ______ ____
ROOT
ATOM      1  C   UNL     1      62.373 -13.893 -31.845  0.00  0.00    -0.068 C 
ENDROOT
BRANCH   1   2
ATOM      2  C   UNL     1      60.892 -14.315 -31.902  0.00  0.00    -0.055 C 
BRANCH   2   3
ATOM      3  C   UNL     1      59.991 -13.242 -31.285  0.00  0.00    -0.053 C 
BRANCH   3   5
ATOM      4  C   UNL     1      59.213 -12.099 -29.139  0.00  0.00    -0.065 C 
ATOM      5  C   UNL     1      60.187 -13.076 -29.778  0.00  0.00    -0.056 C 
ENDBRANCH   3   5
ENDBRANCH   2   3
ENDBRANCH   1   2
BRANCH   1   6
ATOM      6  C   UNL     1      63.286 -14.951 -30.755  0.00  0.00    -0.089 C 
BRANCH   6   7
ATOM      7  N   UNL     1      64.212 -15.018 -30.382  0.00  0.00    +0.374 N 
ATOM      8  C   UNL     1      64.002 -14.290 -29.730  0.00  0.00    -0.101 C 
ATOM      9  C   UNL     1      65.137 -15.085 -30.010  0.00  0.00    -0.101 C 
ATOM     10  C   UNL     1      64.421 -15.747 -31.034  0.00  0.00    -0.101 C 
ENDBRANCH   6   7
ENDBRANCH   1   6
TORSDOF 5
ENDMDL
MODEL 18
REMARK VINA RESULT:    -3.709      6.900     10.371
REMARK INTER + INTRA:          -2.803
REMARK INTER:                  -4.319
REMARK INTRA:                   1.515
REMARK UNBOUND:                 1.557
REMARK  Name = cpd224.pdb
REMARK  9 active torsions:
REMARK  status: ('A' for Active; 'I' for Inactive)
REMARK    1  A    between atoms: C_1  and  C_2
REMARK    2  A    between atoms: C_2  and  C_3
REMARK    3  A    between atoms: C_3  and  C_4
REMARK    4  A    between atoms: C_4  and  C_5
REMARK    5  A    between atoms: C_5  and  C_6
REMARK    6  A    between atoms: C_6  and  N_7
REMARK    7  A    between atoms: N_7  and  C_8
REMARK    8  A    between atoms: N_7  and  C_9
REMARK    9  A    between atoms: N_7  and  C_10
REMARK                            x       y       z     vdW  Elec       q    Type
REMARK                         _______ _______ _______ _____ _____    ______ ____
ROOT
ATOM      1  C   UNL     1      35.258 -34.507 -29.943  0.00  0.00    -0.068 C 
ENDROOT
BRANCH   1   2
ATOM      2  C   UNL     1      35.975 -35.621 -30.729  0.00  0.00    -0.055 C 
BRANCH   2   3
ATOM      3  C   UNL     1      36.953 -36.384 -29.833  0.00  0.00    -0.053 C 
BRANCH   3   5
ATOM      4  C   UNL     1      38.590 -36.013 -31.756  0.00  0.00    -0.065 C 
ATOM      5  C   UNL     1      38.194 -36.883 -30.574  0.00  0.00    -0.056 C 
ENDBRANCH   3   5
ENDBRANCH   2   3
ENDBRANCH   1   2
BRANCH   1   6
ATOM      6  C   UNL     1      34.207 -33.560 -31.011  0.00  0.00    -0.089 C 
BRANCH   6   7
ATOM      7  N   UNL     1      33.763 -32.664 -31.017  0.00  0.00    +0.374 N 
ATOM      8  C   UNL     1      33.032 -33.022 -30.436  0.00  0.00    -0.101 C 
ATOM      9  C   UNL     1      33.319 -31.769 -31.024  0.00  0.00    -0.101 C 
ATOM     10  C   UNL     1      34.494 -32.307 -31.599  0.00  0.00    -0.101 C 
ENDBRANCH   6   7
ENDBRANCH   1   6
TORSDOF 5
ENDMDL
MODEL 19
REMARK VINA RESULT:    -3.695     19.816     20.705
REMARK INTER + INTRA:          -2.786
REMARK INTER:                  -4.326
REMARK INTRA:                   1.540
REMARK UNBOUND:                 1.557
REMARK  Name = cpd224.pdb
REMARK  9 active torsions:
REMARK  status: ('A' for Active; 'I' for Inactive)
REMARK    1  A    between atoms: C_1  and  C_2
REMARK    2  A    between atoms: C_2  and  C_3
REMARK    3  A    between atoms: C_3  and  C_4
REMARK    4  A    between atoms: C_4  and  C_5
REMARK    5  A    between atoms: C_5  and  C_6
REMARK    6  A    between atoms: C_6  and  N_7
REMARK    7  A    between atoms: N_7  and  C_8
REMARK    8  A    between atoms: N_7  and  C_9
REMARK    9  A    between atoms: N_7  and  C_10
REMARK                            x       y       z     vdW  Elec       q    Type
REMARK                         _______ _______ _______ _____ _____    ______ ____
ROOT
ATOM      1  C   UNL     1      46.353 -20.444 -39.298  0.00  0.00    -0.068 C 
ENDROOT
BRANCH   1   2
ATOM      2  C   UNL     1      46.552 -20.181 -37.793  0.00  0.00    -0.055 C 
BRANCH   2   3
ATOM      3  C   UNL     1      47.451 -18.964 -37.562  0.00  0.00    -0.053 C 
BRANCH   3   5
ATOM      4  C   UNL     1      48.625 -18.952 -35.294  0.00  0.00    -0.065 C 
ATOM      5  C   UNL     1      47.440 -18.467 -36.115  0.00  0.00    -0.056 C 
ENDBRANCH   3   5
ENDBRANCH   2   3
ENDBRANCH   1   2
BRANCH   1   6
ATOM      6  C   UNL     1      47.075 -21.993 -39.766  0.00  0.00    -0.089 C 
BRANCH   6   7
ATOM      7  N   UNL     1      47.350 -22.465 -40.604  0.00  0.00    +0.374 N 
ATOM      8  C   UNL     1      46.399 -22.723 -40.771  0.00  0.00    -0.101 C 
ATOM      9  C   UNL     1      47.626 -22.937 -41.441  0.00  0.00    -0.101 C 
ATOM     10  C   UNL     1      48.302 -22.207 -40.436  0.00  0.00    -0.101 C 
ENDBRANCH   6   7
ENDBRANCH   1   6
TORSDOF 5
ENDMDL
MODEL 20
REMARK VINA RESULT:    -3.687     32.558     33.794
REMARK INTER + INTRA:          -2.777
REMARK INTER:                  -4.271
REMARK INTRA:                   1.493
REMARK UNBOUND:                 1.557
REMARK  Name = cpd224.pdb
REMARK  9 active torsions:
REMARK  status: ('A' for Active; 'I' for Inactive)
REMARK    1  A    between atoms: C_1  and  C_2
REMARK    2  A    between atoms: C_2  and  C_3
REMARK    3  A    between atoms: C_3  and  C_4
REMARK    4  A    between atoms: C_4  and  C_5
REMARK    5  A    between atoms: C_5  and  C_6
REMARK    6  A    between atoms: C_6  and  N_7
REMARK    7  A    between atoms: N_7  and  C_8
REMARK    8  A    between atoms: N_7  and  C_9
REMARK    9  A    between atoms: N_7  and  C_10
REMARK                            x       y       z     vdW  Elec       q    Type
REMARK                         _______ _______ _______ _____ _____    ______ ____
ROOT
ATOM      1  C   UNL     1      63.474 -23.694  -7.694  0.00  0.00    -0.068 C 
ENDROOT
BRANCH   1   2
ATOM      2  C   UNL     1      63.066 -22.287  -7.217  0.00  0.00    -0.055 C 
BRANCH   2   3
ATOM      3  C   UNL     1      63.861 -21.205  -7.952  0.00  0.00    -0.053 C 
BRANCH   3   5
ATOM      4  C   UNL     1      62.593 -20.982 -10.157  0.00  0.00    -0.065 C 
ATOM      5  C   UNL     1      62.995 -20.319  -8.849  0.00  0.00    -0.056 C 
ENDBRANCH   3   5
ENDBRANCH   2   3
ENDBRANCH   1   2
BRANCH   1   6
ATOM      6  C   UNL     1      62.782 -24.940  -6.640  0.00  0.00    -0.089 C 
BRANCH   6   7
ATOM      7  N   UNL     1      62.739 -25.938  -6.595  0.00  0.00    +0.374 N 
ATOM      8  C   UNL     1      63.468 -25.938  -5.910  0.00  0.00    -0.101 C 
ATOM      9  C   UNL     1      62.695 -26.936  -6.549  0.00  0.00    -0.101 C 
ATOM     10  C   UNL     1      62.010 -25.938  -7.279  0.00  0.00    -0.101 C 
ENDBRANCH   6   7
ENDBRANCH   1   6
TORSDOF 5
ENDMDL
