REMARK  Name = cpd172.pdb
REMARK  15 active torsions:
REMARK  status: ('A' for Active; 'I' for Inactive)
REMARK    1  A    between atoms: C_1  and  N_2
REMARK    2  A    between atoms: N_2  and  C_3
REMARK    3  A    between atoms: N_2  and  C_4
REMARK    4  A    between atoms: C_7  and  C_8
REMARK    5  A    between atoms: C_8  and  C_9
REMARK    6  A    between atoms: N_11  and  C_12
REMARK    7  A    between atoms: C_12  and  C_13
REMARK    8  A    between atoms: C_13  and  C_14
REMARK    9  A    between atoms: C_14  and  C_15
REMARK   10  A    between atoms: C_15  and  C_16
REMARK   11  A    between atoms: C_16  and  C_17
REMARK   12  A    between atoms: C_17  and  C_18
REMARK   13  A    between atoms: C_18  and  C_19
REMARK   14  A    between atoms: C_19  and  N_20
REMARK   15  A    between atoms: N_20  and  C_21
REMARK                            x       y       z     vdW  Elec       q    Type
REMARK                         _______ _______ _______ _____ _____    ______ ____
ROOT
ATOM      1  C   UNL     1       1.703  -2.458  -0.550  0.00  0.00    -0.053 C 
ENDROOT
BRANCH   1   2
ATOM      2  C   UNL     1       0.794  -3.668  -0.770  0.00  0.00    -0.052 C 
BRANCH   2   3
ATOM      3  C   UNL     1       1.031  -4.748   0.290  0.00  0.00    -0.037 C 
BRANCH   3   4
ATOM      4  C   UNL     1      -0.045  -5.837   0.286  0.00  0.00    +0.012 C 
BRANCH   4   7
ATOM      5  C   UNL     1      -2.355  -5.009  -0.069  0.00  0.00    +0.217 C 
ATOM      6  O   UNL     1      -2.392  -5.323  -1.255  0.00  0.00    -0.275 OA
ATOM      7  N   UNL     1      -1.308  -5.321   0.776  0.00  0.00    -0.315 N 
ATOM      8  H   UNL     1      -1.423  -5.188   1.745  0.00  0.00    +0.000 HD
BRANCH   5   9
ATOM      9  C   UNL     1      -3.456  -4.196   0.594  0.00  0.00    +0.049 C 
BRANCH   9  13
ATOM     10  C   UNL     1      -2.101  -0.068   1.087  0.00  0.00    +0.029 A 
ATOM     11  C   UNL     1      -2.480  -0.588  -0.162  0.00  0.00    -0.040 A 
ATOM     12  C   UNL     1      -2.935  -1.905  -0.318  0.00  0.00    -0.056 A 
ATOM     13  C   UNL     1      -3.043  -2.757   0.783  0.00  0.00    -0.039 A 
ATOM     14  C   UNL     1      -2.710  -2.256   2.041  0.00  0.00    -0.056 A 
ATOM     15  C   UNL     1      -2.253  -0.937   2.183  0.00  0.00    -0.040 A 
BRANCH  10  17
ATOM     16  C   UNL     1      -1.461   2.086   0.065  0.00  0.00    +0.000 C 
ATOM     17  N   UNL     1      -1.640   1.246   1.250  0.00  0.00    -0.336 N 
ATOM     18  C   UNL     1      -0.703   1.505   2.342  0.00  0.00    +0.000 C 
ENDBRANCH  10  17
ENDBRANCH   9  13
ENDBRANCH   5   9
ENDBRANCH   4   7
ENDBRANCH   3   4
ENDBRANCH   2   3
ENDBRANCH   1   2
BRANCH   1  19
ATOM     19  C   UNL     1       1.448  -1.376  -1.601  0.00  0.00    -0.053 C 
BRANCH  19  20
ATOM     20  C   UNL     1       2.191  -0.083  -1.259  0.00  0.00    -0.052 C 
BRANCH  20  21
ATOM     21  C   UNL     1       1.960   0.988  -2.329  0.00  0.00    -0.040 C 
BRANCH  21  22
ATOM     22  C   UNL     1       2.646   2.325  -2.018  0.00  0.00    -0.004 C 
BRANCH  22  23
ATOM     23  N   UNL     1       2.001   3.002  -0.893  0.00  0.00    -0.311 N 
ATOM     24  H   UNL     1       2.006   2.361  -0.099  0.00  0.00    +0.000 HD
ATOM     25  H   UNL     1       1.069   3.253  -1.223  0.00  0.00    +0.000 HD
BRANCH  23  26
ATOM     26  C   UNL     1       2.618   4.265  -0.455  0.00  0.00    +0.020 C 
ATOM     27  C   UNL     1       2.822   5.286  -1.604  0.00  0.00    -0.032 C 
ATOM     28  C   UNL     1       3.386   6.610  -1.058  0.00  0.00    -0.039 C 
ATOM     29  C   UNL     1       4.732   6.340  -0.366  0.00  0.00    -0.047 C 
ATOM     30  C   UNL     1       4.540   5.354   0.798  0.00  0.00    -0.039 C 
ATOM     31  C   UNL     1       3.549   5.952   1.809  0.00  0.00    -0.047 C 
ATOM     32  C   UNL     1       2.199   6.218   1.126  0.00  0.00    -0.039 C 
ATOM     33  C   UNL     1       2.400   7.201  -0.037  0.00  0.00    -0.047 C 
ATOM     34  C   UNL     1       1.642   4.893   0.577  0.00  0.00    -0.032 C 
ATOM     35  C   UNL     1       3.976   4.028   0.255  0.00  0.00    -0.032 C 
ENDBRANCH  23  26
ENDBRANCH  22  23
ENDBRANCH  21  22
ENDBRANCH  20  21
ENDBRANCH  19  20
ENDBRANCH   1  19
TORSDOF 13
