@<TRIPOS>MOLECULE
*****
 32 35 0 0 0
SMALL
GASTEIGER

@<TRIPOS>ATOM
      1 C           0.8677    2.5050    0.0000 C.3     1  UNL1        0.1122
      2 N           0.8677    1.5030    0.0000 N.pl3   1  UNL1       -0.3041
      3 C           1.7355    1.0020    0.0000 C.3     1  UNL1        0.1122
      4 C           0.0000    1.0020    0.0000 C.ar    1  UNL1        0.0479
      5 C          -0.8677    1.5030    0.0000 C.ar    1  UNL1        0.0142
      6 C          -1.7355    1.0020    0.0000 C.ar    1  UNL1       -0.0025
      7 C          -1.7355    0.0000    0.0000 C.ar    1  UNL1       -0.0129
      8 C          -2.6032   -0.5010    0.0000 C.3     1  UNL1        0.1131
      9 C          -2.6032   -1.5030    0.0000 C.2     1  UNL1        0.2458
     10 O          -1.7355   -2.0040    0.0000 O.2     1  UNL1       -0.2730
     11 N           0.0051   -4.7273    0.0000 N.am    1  UNL1       -0.2051
     12 C           1.0051   -4.7273    0.0000 C.3     1  UNL1        0.1152
     13 C           1.5051   -3.8613    0.0000 C.3     1  UNL1        0.0234
     14 C           1.0051   -2.9953    0.0000 C.3     1  UNL1        0.0018
     15 C           1.5051   -2.1292    0.0000 C.3     1  UNL1        0.0001
     16 C           1.0051   -1.2632    0.0000 C.3     1  UNL1        0.0000
     17 C           1.5051   -0.3972    0.0000 C.3     1  UNL1        0.0015
     18 C           1.0051    0.4688    0.0000 C.3     1  UNL1        0.0188
     19 C           1.5051    1.3349    0.0000 C.3     1  UNL1        0.0886
     20 N           1.0051    2.2009    0.0000 N.3     1  UNL1       -0.2208
     21 C           1.5051    3.0669    0.0000 C.3     1  UNL1        0.0594
     22 C           2.2122    3.7740    0.0000 C.3     1  UNL1        0.0161
     23 C           1.9534    4.7399    0.0000 C.3     1  UNL1        0.0013
     24 C           2.6349    4.3798    0.0000 C.3     1  UNL1        0.0001
     25 C           2.7782    3.6224    0.0000 C.3     1  UNL1        0.0013
     26 C           1.7225    4.6781    0.0000 C.3     1  UNL1        0.0001
     27 C           0.2803    4.2916    0.0000 C.3     1  UNL1        0.0013
     28 C           0.9874    4.9988    0.0000 C.3     1  UNL1        0.0001
     29 C           0.5391    3.3257    0.0000 C.3     1  UNL1        0.0161
     30 C           2.2754    3.0381    0.0000 C.3     1  UNL1        0.0161
     31 C          -0.8677   -0.5010    0.0000 C.ar    1  UNL1       -0.0025
     32 C          -0.0000   -0.0000    0.0000 C.ar    1  UNL1        0.0142
@<TRIPOS>BOND
     1     1     2    1
     2     2     3    1
     3     2     4    1
     4     4     5   ar
     5     5     6   ar
     6     6     7   ar
     7     7     8    1
     8     8     9    1
     9     9    10    2
    10     9    11   am
    11    11    12    1
    12    12    13    1
    13    13    14    1
    14    14    15    1
    15    15    16    1
    16    16    17    1
    17    17    18    1
    18    18    19    1
    19    19    20    1
    20    20    21    1
    21    21    22    1
    22    22    23    1
    23    23    24    1
    24    24    25    1
    25    25    26    1
    26    26    27    1
    27    27    28    1
    28    23    28    1
    29    27    29    1
    30    21    29    1
    31    25    30    1
    32    21    30    1
    33     7    31   ar
    34    31    32   ar
    35     4    32   ar
