MODEL 1
REMARK VINA RESULT:    -8.706      0.000      0.000
REMARK INTER + INTRA:         -12.139
REMARK INTER:                 -10.742
REMARK INTRA:                  -1.398
REMARK UNBOUND:                -1.398
REMARK  Name = cpd274.pdb
REMARK  9 active torsions:
REMARK  status: ('A' for Active; 'I' for Inactive)
REMARK    1  A    between atoms: C_1  and  C_2
REMARK    2  A    between atoms: C_2  and  C_3
REMARK    3  A    between atoms: C_2  and  C_4
REMARK    4  A    between atoms: C_9  and  N_10
REMARK    5  A    between atoms: C_11  and  O_13
REMARK    6  A    between atoms: O_13  and  C_14
REMARK    7  A    between atoms: C_20  and  C_21
REMARK    8  A    between atoms: N_24  and  C_25
REMARK    9  A    between atoms: N_28  and  C_29
REMARK                            x       y       z     vdW  Elec       q    Type
REMARK                         _______ _______ _______ _____ _____    ______ ____
ROOT
ATOM      1  C   UNL A   1      35.291 -37.225 -27.620  0.00  0.00    +0.134 A 
ATOM      2  C   UNL A   1      34.153 -37.332 -26.818  0.00  0.00    -0.017 A 
ATOM      3  C   UNL A   1      33.037 -36.549 -27.107  0.00  0.00    -0.037 A 
ATOM      4  C   UNL A   1      33.111 -35.601 -28.120  0.00  0.00    +0.032 A 
ATOM      5  C   UNL A   1      34.300 -35.414 -28.816  0.00  0.00    -0.017 A 
ATOM      6  C   UNL A   1      35.398 -36.240 -28.602  0.00  0.00    -0.014 A 
ATOM      7  C   UNL A   1      34.121 -34.279 -29.785  0.00  0.00    +0.002 C 
ATOM      8  C   UNL A   1      35.302 -33.303 -29.721  0.00  0.00    -0.055 C 
ATOM      9  C   UNL A   1      33.855 -34.818 -31.175  0.00  0.00    -0.054 C 
ATOM     10  C   UNL A   1      33.088 -33.706 -31.808  0.00  0.00    -0.048 C 
ATOM     11  N   UNL A   1      32.191 -33.146 -30.735  0.00  0.00    +0.433 N 
ATOM     12  C   UNL A   1      30.798 -33.687 -30.935  0.00  0.00    -0.060 C 
ATOM     13  O   UNL A   1      32.147 -31.766 -30.888  0.00  0.00    -0.289 OA
ATOM     14  C   UNL A   1      32.789 -33.509 -29.261  0.00  0.00    +0.039 C 
ATOM     15  N   UNL A   1      32.074 -34.788 -28.611  0.00  0.00    -0.341 N 
ATOM     16  C   UNL A   1      30.993 -34.545 -27.640  0.00  0.00    -0.001 C 
ENDROOT
BRANCH   1  17
ATOM     17  O   UNL A   1      36.397 -38.097 -27.446  0.00  0.00    -0.411 OA
BRANCH  17  19
ATOM     18  N   UNL A   1      38.463 -37.592 -28.452  0.00  0.00    -0.251 N 
ATOM     19  C   UNL A   1      37.380 -38.449 -28.407  0.00  0.00    +0.410 C 
ATOM     20  O   UNL A   1      37.206 -39.453 -29.086  0.00  0.00    -0.226 OA
ATOM     21  H   UNL A   1      38.512 -36.929 -27.725  0.00  0.00    +0.000 HD
BRANCH  18  27
ATOM     22  C   UNL A   1      39.370 -36.750 -30.576  0.00  0.00    -0.024 A 
ATOM     23  C   UNL A   1      40.414 -36.773 -31.529  0.00  0.00    -0.057 A 
ATOM     24  C   UNL A   1      41.574 -37.517 -31.329  0.00  0.00    -0.061 A 
ATOM     25  C   UNL A   1      41.713 -38.268 -30.174  0.00  0.00    -0.060 A 
ATOM     26  C   UNL A   1      40.689 -38.282 -29.222  0.00  0.00    -0.040 A 
ATOM     27  C   UNL A   1      39.512 -37.538 -29.402  0.00  0.00    +0.040 A 
BRANCH  22  29
ATOM     28  C   UNL A   1      37.095 -36.844 -31.633  0.00  0.00    -0.059 C 
ATOM     29  C   UNL A   1      38.109 -35.951 -30.913  0.00  0.00    -0.020 C 
ATOM     30  C   UNL A   1      38.379 -34.686 -31.740  0.00  0.00    -0.059 C 
ENDBRANCH  22  29
ENDBRANCH  18  27
ENDBRANCH  17  19
ENDBRANCH   1  17
TORSDOF 4
ENDMDL
MODEL 2
REMARK VINA RESULT:    -7.706      2.461      3.961
REMARK INTER + INTRA:         -10.906
REMARK INTER:                 -10.513
REMARK INTRA:                  -0.393
REMARK UNBOUND:                -1.398
REMARK  Name = cpd274.pdb
REMARK  9 active torsions:
REMARK  status: ('A' for Active; 'I' for Inactive)
REMARK    1  A    between atoms: C_1  and  C_2
REMARK    2  A    between atoms: C_2  and  C_3
REMARK    3  A    between atoms: C_2  and  C_4
REMARK    4  A    between atoms: C_9  and  N_10
REMARK    5  A    between atoms: C_11  and  O_13
REMARK    6  A    between atoms: O_13  and  C_14
REMARK    7  A    between atoms: C_20  and  C_21
REMARK    8  A    between atoms: N_24  and  C_25
REMARK    9  A    between atoms: N_28  and  C_29
REMARK                            x       y       z     vdW  Elec       q    Type
REMARK                         _______ _______ _______ _____ _____    ______ ____
ROOT
ATOM      1  C   UNL A   1      34.129 -34.458 -31.218  0.00  0.00    +0.134 A 
ATOM      2  C   UNL A   1      34.473 -33.118 -31.028  0.00  0.00    -0.017 A 
ATOM      3  C   UNL A   1      33.472 -32.188 -30.757  0.00  0.00    -0.037 A 
ATOM      4  C   UNL A   1      32.141 -32.588 -30.786  0.00  0.00    +0.032 A 
ATOM      5  C   UNL A   1      31.813 -33.898 -31.114  0.00  0.00    -0.017 A 
ATOM      6  C   UNL A   1      32.797 -34.862 -31.305  0.00  0.00    -0.014 A 
ATOM      7  C   UNL A   1      30.315 -34.028 -31.151  0.00  0.00    +0.002 C 
ATOM      8  C   UNL A   1      29.854 -34.773 -32.409  0.00  0.00    -0.055 C 
ATOM      9  C   UNL A   1      29.814 -34.644 -29.862  0.00  0.00    -0.054 C 
ATOM     10  C   UNL A   1      28.422 -34.116 -29.775  0.00  0.00    -0.048 C 
ATOM     11  N   UNL A   1      28.475 -32.698 -30.282  0.00  0.00    +0.433 N 
ATOM     12  C   UNL A   1      28.478 -31.760 -29.101  0.00  0.00    -0.060 C 
ATOM     13  O   UNL A   1      27.322 -32.463 -31.020  0.00  0.00    -0.289 OA
ATOM     14  C   UNL A   1      29.781 -32.495 -31.238  0.00  0.00    +0.039 C 
ATOM     15  N   UNL A   1      31.009 -31.822 -30.456  0.00  0.00    -0.341 N 
ATOM     16  C   UNL A   1      31.201 -30.369 -30.611  0.00  0.00    -0.001 C 
ENDROOT
BRANCH   1  17
ATOM     17  O   UNL A   1      35.125 -35.459 -31.362  0.00  0.00    -0.411 OA
BRANCH  17  19
ATOM     18  N   UNL A   1      37.311 -36.211 -30.924  0.00  0.00    -0.251 N 
ATOM     19  C   UNL A   1      36.079 -35.874 -30.396  0.00  0.00    +0.410 C 
ATOM     20  O   UNL A   1      35.755 -35.887 -29.216  0.00  0.00    -0.226 OA
ATOM     21  H   UNL A   1      37.442 -35.988 -31.874  0.00  0.00    +0.000 HD
BRANCH  18  27
ATOM     22  C   UNL A   1      39.731 -36.601 -30.747  0.00  0.00    -0.024 A 
ATOM     23  C   UNL A   1      40.794 -37.291 -30.120  0.00  0.00    -0.057 A 
ATOM     24  C   UNL A   1      40.577 -38.159 -29.053  0.00  0.00    -0.061 A 
ATOM     25  C   UNL A   1      39.287 -38.368 -28.594  0.00  0.00    -0.060 A 
ATOM     26  C   UNL A   1      38.214 -37.715 -29.207  0.00  0.00    -0.040 A 
ATOM     27  C   UNL A   1      38.409 -36.835 -30.283  0.00  0.00    +0.040 A 
BRANCH  22  29
ATOM     28  C   UNL A   1      41.122 -36.391 -32.826  0.00  0.00    -0.059 C 
ATOM     29  C   UNL A   1      40.063 -35.716 -31.950  0.00  0.00    -0.020 C 
ATOM     30  C   UNL A   1      40.517 -34.299 -31.572  0.00  0.00    -0.059 C 
ENDBRANCH  22  29
ENDBRANCH  18  27
ENDBRANCH  17  19
ENDBRANCH   1  17
TORSDOF 4
ENDMDL
MODEL 3
REMARK VINA RESULT:    -7.399      2.322      3.684
REMARK INTER + INTRA:         -10.526
REMARK INTER:                 -10.357
REMARK INTRA:                  -0.170
REMARK UNBOUND:                -1.398
REMARK  Name = cpd274.pdb
REMARK  9 active torsions:
REMARK  status: ('A' for Active; 'I' for Inactive)
REMARK    1  A    between atoms: C_1  and  C_2
REMARK    2  A    between atoms: C_2  and  C_3
REMARK    3  A    between atoms: C_2  and  C_4
REMARK    4  A    between atoms: C_9  and  N_10
REMARK    5  A    between atoms: C_11  and  O_13
REMARK    6  A    between atoms: O_13  and  C_14
REMARK    7  A    between atoms: C_20  and  C_21
REMARK    8  A    between atoms: N_24  and  C_25
REMARK    9  A    between atoms: N_28  and  C_29
REMARK                            x       y       z     vdW  Elec       q    Type
REMARK                         _______ _______ _______ _____ _____    ______ ____
ROOT
ATOM      1  C   UNL A   1      33.630 -35.457 -31.938  0.00  0.00    +0.134 A 
ATOM      2  C   UNL A   1      32.576 -35.758 -32.803  0.00  0.00    -0.017 A 
ATOM      3  C   UNL A   1      31.381 -35.050 -32.698  0.00  0.00    -0.037 A 
ATOM      4  C   UNL A   1      31.220 -34.132 -31.667  0.00  0.00    +0.032 A 
ATOM      5  C   UNL A   1      32.231 -33.947 -30.732  0.00  0.00    -0.017 A 
ATOM      6  C   UNL A   1      33.462 -34.579 -30.866  0.00  0.00    -0.014 A 
ATOM      7  C   UNL A   1      31.758 -32.968 -29.693  0.00  0.00    +0.002 C 
ATOM      8  C   UNL A   1      32.064 -33.471 -28.277  0.00  0.00    -0.055 C 
ATOM      9  C   UNL A   1      32.316 -31.591 -29.982  0.00  0.00    -0.054 C 
ATOM     10  C   UNL A   1      31.305 -30.696 -29.348  0.00  0.00    -0.048 C 
ATOM     11  N   UNL A   1      29.962 -31.332 -29.596  0.00  0.00    +0.433 N 
ATOM     12  C   UNL A   1      29.290 -30.616 -30.741  0.00  0.00    -0.060 C 
ATOM     13  O   UNL A   1      29.186 -31.155 -28.458  0.00  0.00    -0.289 OA
ATOM     14  C   UNL A   1      30.144 -32.927 -29.886  0.00  0.00    +0.039 C 
ATOM     15  N   UNL A   1      30.132 -33.268 -31.452  0.00  0.00    -0.341 N 
ATOM     16  C   UNL A   1      28.864 -33.742 -32.036  0.00  0.00    -0.001 C 
ENDROOT
BRANCH   1  17
ATOM     17  O   UNL A   1      34.906 -36.056 -32.097  0.00  0.00    -0.411 OA
BRANCH  17  19
ATOM     18  N   UNL A   1      37.067 -36.350 -31.215  0.00  0.00    -0.251 N 
ATOM     19  C   UNL A   1      35.721 -36.636 -31.091  0.00  0.00    +0.410 C 
ATOM     20  O   UNL A   1      35.188 -37.307 -30.216  0.00  0.00    -0.226 OA
ATOM     21  H   UNL A   1      37.297 -35.665 -31.884  0.00  0.00    +0.000 HD
BRANCH  18  27
ATOM     22  C   UNL A   1      39.491 -36.662 -30.947  0.00  0.00    -0.024 A 
ATOM     23  C   UNL A   1      40.551 -37.289 -30.253  0.00  0.00    -0.057 A 
ATOM     24  C   UNL A   1      40.324 -38.106 -29.149  0.00  0.00    -0.061 A 
ATOM     25  C   UNL A   1      39.027 -38.326 -28.718  0.00  0.00    -0.060 A 
ATOM     26  C   UNL A   1      37.956 -37.737 -29.395  0.00  0.00    -0.040 A 
ATOM     27  C   UNL A   1      38.161 -36.908 -30.510  0.00  0.00    +0.040 A 
BRANCH  22  29
ATOM     28  C   UNL A   1      41.097 -36.383 -32.855  0.00  0.00    -0.059 C 
ATOM     29  C   UNL A   1      39.836 -35.831 -32.185  0.00  0.00    -0.020 C 
ATOM     30  C   UNL A   1      40.002 -34.332 -31.900  0.00  0.00    -0.059 C 
ENDBRANCH  22  29
ENDBRANCH  18  27
ENDBRANCH  17  19
ENDBRANCH   1  17
TORSDOF 4
ENDMDL
MODEL 4
REMARK VINA RESULT:    -7.389     16.893     19.327
REMARK INTER + INTRA:         -10.514
REMARK INTER:                  -9.558
REMARK INTRA:                  -0.956
REMARK UNBOUND:                -1.398
REMARK  Name = cpd274.pdb
REMARK  9 active torsions:
REMARK  status: ('A' for Active; 'I' for Inactive)
REMARK    1  A    between atoms: C_1  and  C_2
REMARK    2  A    between atoms: C_2  and  C_3
REMARK    3  A    between atoms: C_2  and  C_4
REMARK    4  A    between atoms: C_9  and  N_10
REMARK    5  A    between atoms: C_11  and  O_13
REMARK    6  A    between atoms: O_13  and  C_14
REMARK    7  A    between atoms: C_20  and  C_21
REMARK    8  A    between atoms: N_24  and  C_25
REMARK    9  A    between atoms: N_28  and  C_29
REMARK                            x       y       z     vdW  Elec       q    Type
REMARK                         _______ _______ _______ _____ _____    ______ ____
ROOT
ATOM      1  C   UNL A   1      45.361 -19.456 -36.262  0.00  0.00    +0.134 A 
ATOM      2  C   UNL A   1      45.428 -19.350 -34.871  0.00  0.00    -0.017 A 
ATOM      3  C   UNL A   1      44.316 -19.694 -34.106  0.00  0.00    -0.037 A 
ATOM      4  C   UNL A   1      43.128 -20.035 -34.741  0.00  0.00    +0.032 A 
ATOM      5  C   UNL A   1      43.042 -20.001 -36.127  0.00  0.00    -0.017 A 
ATOM      6  C   UNL A   1      44.161 -19.743 -36.913  0.00  0.00    -0.014 A 
ATOM      7  C   UNL A   1      41.633 -20.330 -36.535  0.00  0.00    +0.002 C 
ATOM      8  C   UNL A   1      41.116 -19.344 -37.591  0.00  0.00    -0.055 C 
ATOM      9  C   UNL A   1      41.539 -21.780 -36.962  0.00  0.00    -0.054 C 
ATOM     10  C   UNL A   1      40.108 -22.100 -36.692  0.00  0.00    -0.048 C 
ATOM     11  N   UNL A   1      39.745 -21.379 -35.420  0.00  0.00    +0.433 N 
ATOM     12  C   UNL A   1      39.766 -22.365 -34.279  0.00  0.00    -0.060 C 
ATOM     13  O   UNL A   1      38.449 -20.898 -35.554  0.00  0.00    -0.289 OA
ATOM     14  C   UNL A   1      40.764 -20.129 -35.176  0.00  0.00    +0.039 C 
ATOM     15  N   UNL A   1      41.938 -20.492 -34.146  0.00  0.00    -0.341 N 
ATOM     16  C   UNL A   1      41.768 -20.071 -32.744  0.00  0.00    -0.001 C 
ENDROOT
BRANCH   1  17
ATOM     17  O   UNL A   1      46.509 -19.247 -37.071  0.00  0.00    -0.411 OA
BRANCH  17  19
ATOM     18  N   UNL A   1      46.413 -20.916 -38.726  0.00  0.00    -0.251 N 
ATOM     19  C   UNL A   1      46.678 -19.591 -38.437  0.00  0.00    +0.410 C 
ATOM     20  O   UNL A   1      47.019 -18.719 -39.226  0.00  0.00    -0.226 OA
ATOM     21  H   UNL A   1      45.997 -21.435 -38.000  0.00  0.00    +0.000 HD
BRANCH  18  27
ATOM     22  C   UNL A   1      45.743 -21.539 -41.008  0.00  0.00    -0.024 A 
ATOM     23  C   UNL A   1      45.993 -22.314 -42.163  0.00  0.00    -0.057 A 
ATOM     24  C   UNL A   1      47.117 -23.128 -42.272  0.00  0.00    -0.061 A 
ATOM     25  C   UNL A   1      48.015 -23.195 -41.220  0.00  0.00    -0.060 A 
ATOM     26  C   UNL A   1      47.785 -22.456 -40.056  0.00  0.00    -0.040 A 
ATOM     27  C   UNL A   1      46.659 -21.628 -39.925  0.00  0.00    +0.040 A 
BRANCH  22  29
ATOM     28  C   UNL A   1      43.333 -21.543 -40.306  0.00  0.00    -0.059 C 
ATOM     29  C   UNL A   1      44.449 -20.722 -40.958  0.00  0.00    -0.020 C 
ATOM     30  C   UNL A   1      43.991 -20.202 -42.327  0.00  0.00    -0.059 C 
ENDBRANCH  22  29
ENDBRANCH  18  27
ENDBRANCH  17  19
ENDBRANCH   1  17
TORSDOF 4
ENDMDL
MODEL 5
REMARK VINA RESULT:    -7.366     16.730     19.941
REMARK INTER + INTRA:         -10.486
REMARK INTER:                  -9.057
REMARK INTRA:                  -1.429
REMARK UNBOUND:                -1.398
REMARK  Name = cpd274.pdb
REMARK  9 active torsions:
REMARK  status: ('A' for Active; 'I' for Inactive)
REMARK    1  A    between atoms: C_1  and  C_2
REMARK    2  A    between atoms: C_2  and  C_3
REMARK    3  A    between atoms: C_2  and  C_4
REMARK    4  A    between atoms: C_9  and  N_10
REMARK    5  A    between atoms: C_11  and  O_13
REMARK    6  A    between atoms: O_13  and  C_14
REMARK    7  A    between atoms: C_20  and  C_21
REMARK    8  A    between atoms: N_24  and  C_25
REMARK    9  A    between atoms: N_28  and  C_29
REMARK                            x       y       z     vdW  Elec       q    Type
REMARK                         _______ _______ _______ _____ _____    ______ ____
ROOT
ATOM      1  C   UNL A   1      41.445 -22.103 -39.016  0.00  0.00    +0.134 A 
ATOM      2  C   UNL A   1      41.309 -22.159 -40.404  0.00  0.00    -0.017 A 
ATOM      3  C   UNL A   1      42.296 -21.599 -41.210  0.00  0.00    -0.037 A 
ATOM      4  C   UNL A   1      43.344 -20.901 -40.622  0.00  0.00    +0.032 A 
ATOM      5  C   UNL A   1      43.387 -20.738 -39.243  0.00  0.00    -0.017 A 
ATOM      6  C   UNL A   1      42.460 -21.360 -38.414  0.00  0.00    -0.014 A 
ATOM      7  C   UNL A   1      44.571 -19.880 -38.892  0.00  0.00    +0.002 C 
ATOM      8  C   UNL A   1      44.185 -18.783 -37.892  0.00  0.00    -0.055 C 
ATOM      9  C   UNL A   1      45.723 -20.745 -38.427  0.00  0.00    -0.054 C 
ATOM     10  C   UNL A   1      46.909 -19.903 -38.754  0.00  0.00    -0.048 C 
ATOM     11  N   UNL A   1      46.598 -19.224 -40.063  0.00  0.00    +0.433 N 
ATOM     12  C   UNL A   1      47.313 -19.956 -41.171  0.00  0.00    -0.060 C 
ATOM     13  O   UNL A   1      47.098 -17.929 -40.005  0.00  0.00    -0.289 OA
ATOM     14  C   UNL A   1      44.984 -19.172 -40.296  0.00  0.00    +0.039 C 
ATOM     15  N   UNL A   1      44.469 -20.347 -41.258  0.00  0.00    -0.341 N 
ATOM     16  C   UNL A   1      44.254 -20.019 -42.679  0.00  0.00    -0.001 C 
ENDROOT
BRANCH   1  17
ATOM     17  O   UNL A   1      40.535 -22.778 -38.160  0.00  0.00    -0.411 OA
BRANCH  17  19
ATOM     18  N   UNL A   1      39.451 -21.520 -36.494  0.00  0.00    -0.251 N 
ATOM     19  C   UNL A   1      40.322 -22.555 -36.775  0.00  0.00    +0.410 C 
ATOM     20  O   UNL A   1      40.894 -23.277 -35.968  0.00  0.00    -0.226 OA
ATOM     21  H   UNL A   1      38.963 -21.153 -37.266  0.00  0.00    +0.000 HD
BRANCH  18  27
ATOM     22  C   UNL A   1      40.029 -19.910 -34.728  0.00  0.00    -0.024 A 
ATOM     23  C   UNL A   1      39.744 -19.375 -33.450  0.00  0.00    -0.057 A 
ATOM     24  C   UNL A   1      38.637 -19.787 -32.713  0.00  0.00    -0.061 A 
ATOM     25  C   UNL A   1      37.792 -20.753 -33.232  0.00  0.00    -0.060 A 
ATOM     26  C   UNL A   1      38.058 -21.314 -34.483  0.00  0.00    -0.040 A 
ATOM     27  C   UNL A   1      39.167 -20.915 -35.245  0.00  0.00    +0.040 A 
BRANCH  22  29
ATOM     28  C   UNL A   1      42.528 -20.123 -34.823  0.00  0.00    -0.059 C 
ATOM     29  C   UNL A   1      41.302 -19.439 -35.435  0.00  0.00    -0.020 C 
ATOM     30  C   UNL A   1      41.488 -17.915 -35.427  0.00  0.00    -0.059 C 
ENDBRANCH  22  29
ENDBRANCH  18  27
ENDBRANCH  17  19
ENDBRANCH   1  17
TORSDOF 4
ENDMDL
MODEL 6
REMARK VINA RESULT:    -7.351     16.447     19.658
REMARK INTER + INTRA:         -10.468
REMARK INTER:                  -9.671
REMARK INTRA:                  -0.797
REMARK UNBOUND:                -1.398
REMARK  Name = cpd274.pdb
REMARK  9 active torsions:
REMARK  status: ('A' for Active; 'I' for Inactive)
REMARK    1  A    between atoms: C_1  and  C_2
REMARK    2  A    between atoms: C_2  and  C_3
REMARK    3  A    between atoms: C_2  and  C_4
REMARK    4  A    between atoms: C_9  and  N_10
REMARK    5  A    between atoms: C_11  and  O_13
REMARK    6  A    between atoms: O_13  and  C_14
REMARK    7  A    between atoms: C_20  and  C_21
REMARK    8  A    between atoms: N_24  and  C_25
REMARK    9  A    between atoms: N_28  and  C_29
REMARK                            x       y       z     vdW  Elec       q    Type
REMARK                         _______ _______ _______ _____ _____    ______ ____
ROOT
ATOM      1  C   UNL A   1      41.438 -21.872 -38.931  0.00  0.00    +0.134 A 
ATOM      2  C   UNL A   1      41.247 -22.083 -40.298  0.00  0.00    -0.017 A 
ATOM      3  C   UNL A   1      42.242 -21.699 -41.194  0.00  0.00    -0.037 A 
ATOM      4  C   UNL A   1      43.358 -21.016 -40.724  0.00  0.00    +0.032 A 
ATOM      5  C   UNL A   1      43.463 -20.693 -39.377  0.00  0.00    -0.017 A 
ATOM      6  C   UNL A   1      42.525 -21.140 -38.453  0.00  0.00    -0.014 A 
ATOM      7  C   UNL A   1      44.717 -19.890 -39.166  0.00  0.00    +0.002 C 
ATOM      8  C   UNL A   1      44.446 -18.655 -38.298  0.00  0.00    -0.055 C 
ATOM      9  C   UNL A   1      45.820 -20.778 -38.632  0.00  0.00    -0.054 C 
ATOM     10  C   UNL A   1      47.051 -20.071 -39.092  0.00  0.00    -0.048 C 
ATOM     11  N   UNL A   1      46.741 -19.533 -40.465  0.00  0.00    +0.433 N 
ATOM     12  C   UNL A   1      47.360 -20.443 -41.495  0.00  0.00    -0.060 C 
ATOM     13  O   UNL A   1      47.333 -18.282 -40.579  0.00  0.00    -0.289 OA
ATOM     14  C   UNL A   1      45.128 -19.389 -40.657  0.00  0.00    +0.039 C 
ATOM     15  N   UNL A   1      44.495 -20.628 -41.454  0.00  0.00    -0.341 N 
ATOM     16  C   UNL A   1      44.252 -20.457 -42.898  0.00  0.00    -0.001 C 
ENDROOT
BRANCH   1  17
ATOM     17  O   UNL A   1      40.514 -22.369 -37.975  0.00  0.00    -0.411 OA
BRANCH  17  19
ATOM     18  N   UNL A   1      40.085 -21.195 -35.982  0.00  0.00    -0.251 N 
ATOM     19  C   UNL A   1      40.626 -22.327 -36.561  0.00  0.00    +0.410 C 
ATOM     20  O   UNL A   1      41.160 -23.266 -35.984  0.00  0.00    -0.226 OA
ATOM     21  H   UNL A   1      39.555 -20.622 -36.583  0.00  0.00    +0.000 HD
BRANCH  18  27
ATOM     22  C   UNL A   1      39.241 -21.172 -33.673  0.00  0.00    -0.024 A 
ATOM     23  C   UNL A   1      39.344 -20.654 -32.362  0.00  0.00    -0.057 A 
ATOM     24  C   UNL A   1      40.359 -19.773 -31.999  0.00  0.00    -0.061 A 
ATOM     25  C   UNL A   1      41.291 -19.378 -32.945  0.00  0.00    -0.060 A 
ATOM     26  C   UNL A   1      41.203 -19.858 -34.254  0.00  0.00    -0.040 A 
ATOM     27  C   UNL A   1      40.189 -20.748 -34.642  0.00  0.00    +0.040 A 
BRANCH  22  29
ATOM     28  C   UNL A   1      36.861 -21.731 -33.101  0.00  0.00    -0.059 C 
ATOM     29  C   UNL A   1      38.055 -22.087 -33.992  0.00  0.00    -0.020 C 
ATOM     30  C   UNL A   1      38.376 -23.583 -33.872  0.00  0.00    -0.059 C 
ENDBRANCH  22  29
ENDBRANCH  18  27
ENDBRANCH  17  19
ENDBRANCH   1  17
TORSDOF 4
ENDMDL
MODEL 7
REMARK VINA RESULT:    -7.276      2.409      3.728
REMARK INTER + INTRA:         -10.375
REMARK INTER:                  -9.996
REMARK INTRA:                  -0.379
REMARK UNBOUND:                -1.398
REMARK  Name = cpd274.pdb
REMARK  9 active torsions:
REMARK  status: ('A' for Active; 'I' for Inactive)
REMARK    1  A    between atoms: C_1  and  C_2
REMARK    2  A    between atoms: C_2  and  C_3
REMARK    3  A    between atoms: C_2  and  C_4
REMARK    4  A    between atoms: C_9  and  N_10
REMARK    5  A    between atoms: C_11  and  O_13
REMARK    6  A    between atoms: O_13  and  C_14
REMARK    7  A    between atoms: C_20  and  C_21
REMARK    8  A    between atoms: N_24  and  C_25
REMARK    9  A    between atoms: N_28  and  C_29
REMARK                            x       y       z     vdW  Elec       q    Type
REMARK                         _______ _______ _______ _____ _____    ______ ____
ROOT
ATOM      1  C   UNL A   1      33.543 -35.001 -30.936  0.00  0.00    +0.134 A 
ATOM      2  C   UNL A   1      33.043 -35.826 -29.926  0.00  0.00    -0.017 A 
ATOM      3  C   UNL A   1      31.852 -35.482 -29.291  0.00  0.00    -0.037 A 
ATOM      4  C   UNL A   1      31.238 -34.274 -29.596  0.00  0.00    +0.032 A 
ATOM      5  C   UNL A   1      31.826 -33.402 -30.505  0.00  0.00    -0.017 A 
ATOM      6  C   UNL A   1      32.968 -33.761 -31.213  0.00  0.00    -0.014 A 
ATOM      7  C   UNL A   1      30.999 -32.149 -30.580  0.00  0.00    +0.002 C 
ATOM      8  C   UNL A   1      31.881 -30.896 -30.504  0.00  0.00    -0.055 C 
ATOM      9  C   UNL A   1      30.104 -32.186 -31.800  0.00  0.00    -0.054 C 
ATOM     10  C   UNL A   1      28.973 -31.303 -31.396  0.00  0.00    -0.048 C 
ATOM     11  N   UNL A   1      28.727 -31.573 -29.934  0.00  0.00    +0.433 N 
ATOM     12  C   UNL A   1      27.535 -32.488 -29.802  0.00  0.00    -0.060 C 
ATOM     13  O   UNL A   1      28.418 -30.366 -29.320  0.00  0.00    -0.289 OA
ATOM     14  C   UNL A   1      30.067 -32.202 -29.249  0.00  0.00    +0.039 C 
ATOM     15  N   UNL A   1      29.999 -33.799 -29.130  0.00  0.00    -0.341 N 
ATOM     16  C   UNL A   1      29.588 -34.369 -27.834  0.00  0.00    -0.001 C 
ENDROOT
BRANCH   1  17
ATOM     17  O   UNL A   1      34.677 -35.381 -31.701  0.00  0.00    -0.411 OA
BRANCH  17  19
ATOM     18  N   UNL A   1      36.909 -36.120 -31.754  0.00  0.00    -0.251 N 
ATOM     19  C   UNL A   1      36.040 -35.098 -31.426  0.00  0.00    +0.410 C 
ATOM     20  O   UNL A   1      36.330 -34.007 -30.951  0.00  0.00    -0.226 OA
ATOM     21  H   UNL A   1      36.519 -36.860 -32.273  0.00  0.00    +0.000 HD
BRANCH  18  27
ATOM     22  C   UNL A   1      38.699 -37.062 -30.356  0.00  0.00    -0.024 A 
ATOM     23  C   UNL A   1      40.076 -37.113 -30.041  0.00  0.00    -0.057 A 
ATOM     24  C   UNL A   1      41.024 -36.414 -30.784  0.00  0.00    -0.061 A 
ATOM     25  C   UNL A   1      40.616 -35.637 -31.854  0.00  0.00    -0.060 A 
ATOM     26  C   UNL A   1      39.259 -35.551 -32.178  0.00  0.00    -0.040 A 
ATOM     27  C   UNL A   1      38.285 -36.247 -31.444  0.00  0.00    +0.040 A 
BRANCH  22  29
ATOM     28  C   UNL A   1      36.864 -36.824 -28.659  0.00  0.00    -0.059 C 
ATOM     29  C   UNL A   1      37.727 -37.815 -29.445  0.00  0.00    -0.020 C 
ATOM     30  C   UNL A   1      38.412 -38.797 -28.483  0.00  0.00    -0.059 C 
ENDBRANCH  22  29
ENDBRANCH  18  27
ENDBRANCH  17  19
ENDBRANCH   1  17
TORSDOF 4
ENDMDL
MODEL 8
REMARK VINA RESULT:    -7.139      2.484      4.944
REMARK INTER + INTRA:         -10.206
REMARK INTER:                  -8.914
REMARK INTRA:                  -1.291
REMARK UNBOUND:                -1.398
REMARK  Name = cpd274.pdb
REMARK  9 active torsions:
REMARK  status: ('A' for Active; 'I' for Inactive)
REMARK    1  A    between atoms: C_1  and  C_2
REMARK    2  A    between atoms: C_2  and  C_3
REMARK    3  A    between atoms: C_2  and  C_4
REMARK    4  A    between atoms: C_9  and  N_10
REMARK    5  A    between atoms: C_11  and  O_13
REMARK    6  A    between atoms: O_13  and  C_14
REMARK    7  A    between atoms: C_20  and  C_21
REMARK    8  A    between atoms: N_24  and  C_25
REMARK    9  A    between atoms: N_28  and  C_29
REMARK                            x       y       z     vdW  Elec       q    Type
REMARK                         _______ _______ _______ _____ _____    ______ ____
ROOT
ATOM      1  C   UNL A   1      33.028 -35.229 -29.868  0.00  0.00    +0.134 A 
ATOM      2  C   UNL A   1      31.694 -34.833 -29.752  0.00  0.00    -0.017 A 
ATOM      3  C   UNL A   1      30.954 -35.241 -28.645  0.00  0.00    -0.037 A 
ATOM      4  C   UNL A   1      31.520 -36.121 -27.731  0.00  0.00    +0.032 A 
ATOM      5  C   UNL A   1      32.803 -36.614 -27.938  0.00  0.00    -0.017 A 
ATOM      6  C   UNL A   1      33.590 -36.155 -28.989  0.00  0.00    -0.014 A 
ATOM      7  C   UNL A   1      33.126 -37.600 -26.850  0.00  0.00    +0.002 C 
ATOM      8  C   UNL A   1      33.742 -38.881 -27.427  0.00  0.00    -0.055 C 
ATOM      9  C   UNL A   1      33.978 -36.943 -25.786  0.00  0.00    -0.054 C 
ATOM     10  C   UNL A   1      33.659 -37.751 -24.575  0.00  0.00    -0.048 C 
ATOM     11  N   UNL A   1      32.190 -38.075 -24.658  0.00  0.00    +0.433 N 
ATOM     12  C   UNL A   1      31.435 -37.142 -23.744  0.00  0.00    -0.060 C 
ATOM     13  O   UNL A   1      32.009 -39.373 -24.197  0.00  0.00    -0.289 OA
ATOM     14  C   UNL A   1      31.681 -37.972 -26.204  0.00  0.00    +0.039 C 
ATOM     15  N   UNL A   1      30.967 -36.572 -26.519  0.00  0.00    -0.341 N 
ATOM     16  C   UNL A   1      29.494 -36.535 -26.482  0.00  0.00    -0.001 C 
ENDROOT
BRANCH   1  17
ATOM     17  O   UNL A   1      33.857 -34.728 -30.905  0.00  0.00    -0.411 OA
BRANCH  17  19
ATOM     18  N   UNL A   1      35.946 -35.731 -31.305  0.00  0.00    -0.251 N 
ATOM     19  C   UNL A   1      35.270 -34.598 -30.897  0.00  0.00    +0.410 C 
ATOM     20  O   UNL A   1      35.760 -33.529 -30.555  0.00  0.00    -0.226 OA
ATOM     21  H   UNL A   1      35.389 -36.442 -31.696  0.00  0.00    +0.000 HD
BRANCH  18  27
ATOM     22  C   UNL A   1      37.823 -36.981 -30.325  0.00  0.00    -0.024 A 
ATOM     23  C   UNL A   1      39.219 -37.183 -30.244  0.00  0.00    -0.057 A 
ATOM     24  C   UNL A   1      40.110 -36.478 -31.050  0.00  0.00    -0.061 A 
ATOM     25  C   UNL A   1      39.625 -35.544 -31.950  0.00  0.00    -0.060 A 
ATOM     26  C   UNL A   1      38.251 -35.308 -32.039  0.00  0.00    -0.040 A 
ATOM     27  C   UNL A   1      37.334 -36.007 -31.238  0.00  0.00    +0.040 A 
BRANCH  22  29
ATOM     28  C   UNL A   1      37.676 -38.020 -28.045  0.00  0.00    -0.059 C 
ATOM     29  C   UNL A   1      36.929 -37.758 -29.356  0.00  0.00    -0.020 C 
ATOM     30  C   UNL A   1      36.390 -39.076 -29.930  0.00  0.00    -0.059 C 
ENDBRANCH  22  29
ENDBRANCH  18  27
ENDBRANCH  17  19
ENDBRANCH   1  17
TORSDOF 4
ENDMDL
MODEL 9
REMARK VINA RESULT:    -7.137      2.934      4.886
REMARK INTER + INTRA:         -10.203
REMARK INTER:                 -10.060
REMARK INTRA:                  -0.143
REMARK UNBOUND:                -1.398
REMARK  Name = cpd274.pdb
REMARK  9 active torsions:
REMARK  status: ('A' for Active; 'I' for Inactive)
REMARK    1  A    between atoms: C_1  and  C_2
REMARK    2  A    between atoms: C_2  and  C_3
REMARK    3  A    between atoms: C_2  and  C_4
REMARK    4  A    between atoms: C_9  and  N_10
REMARK    5  A    between atoms: C_11  and  O_13
REMARK    6  A    between atoms: O_13  and  C_14
REMARK    7  A    between atoms: C_20  and  C_21
REMARK    8  A    between atoms: N_24  and  C_25
REMARK    9  A    between atoms: N_28  and  C_29
REMARK                            x       y       z     vdW  Elec       q    Type
REMARK                         _______ _______ _______ _____ _____    ______ ____
ROOT
ATOM      1  C   UNL A   1      33.319 -33.658 -31.739  0.00  0.00    +0.134 A 
ATOM      2  C   UNL A   1      33.628 -32.329 -31.445  0.00  0.00    -0.017 A 
ATOM      3  C   UNL A   1      32.606 -31.454 -31.084  0.00  0.00    -0.037 A 
ATOM      4  C   UNL A   1      31.287 -31.889 -31.126  0.00  0.00    +0.032 A 
ATOM      5  C   UNL A   1      30.990 -33.177 -31.556  0.00  0.00    -0.017 A 
ATOM      6  C   UNL A   1      31.997 -34.093 -31.839  0.00  0.00    -0.014 A 
ATOM      7  C   UNL A   1      29.496 -33.348 -31.581  0.00  0.00    +0.002 C 
ATOM      8  C   UNL A   1      29.035 -34.001 -32.890  0.00  0.00    -0.055 C 
ATOM      9  C   UNL A   1      29.034 -34.082 -30.341  0.00  0.00    -0.054 C 
ATOM     10  C   UNL A   1      27.630 -33.604 -30.190  0.00  0.00    -0.048 C 
ATOM     11  N   UNL A   1      27.634 -32.149 -30.580  0.00  0.00    +0.433 N 
ATOM     12  C   UNL A   1      27.631 -31.310 -29.326  0.00  0.00    -0.060 C 
ATOM     13  O   UNL A   1      26.463 -31.888 -31.279  0.00  0.00    -0.289 OA
ATOM     14  C   UNL A   1      28.918 -31.829 -31.534  0.00  0.00    +0.039 C 
ATOM     15  N   UNL A   1      30.139 -31.187 -30.718  0.00  0.00    -0.341 N 
ATOM     16  C   UNL A   1      30.288 -29.721 -30.756  0.00  0.00    -0.001 C 
ENDROOT
BRANCH   1  17
ATOM     17  O   UNL A   1      34.341 -34.615 -31.979  0.00  0.00    -0.411 OA
BRANCH  17  19
ATOM     18  N   UNL A   1      36.508 -35.523 -32.090  0.00  0.00    -0.251 N 
ATOM     19  C   UNL A   1      35.675 -34.593 -31.497  0.00  0.00    +0.410 C 
ATOM     20  O   UNL A   1      35.978 -33.776 -30.637  0.00  0.00    -0.226 OA
ATOM     21  H   UNL A   1      36.136 -35.988 -32.874  0.00  0.00    +0.000 HD
BRANCH  18  27
ATOM     22  C   UNL A   1      38.032 -36.817 -30.659  0.00  0.00    -0.024 A 
ATOM     23  C   UNL A   1      39.361 -37.116 -30.282  0.00  0.00    -0.057 A 
ATOM     24  C   UNL A   1      40.454 -36.558 -30.941  0.00  0.00    -0.061 A 
ATOM     25  C   UNL A   1      40.243 -35.677 -31.988  0.00  0.00    -0.060 A 
ATOM     26  C   UNL A   1      38.940 -35.346 -32.371  0.00  0.00    -0.040 A 
ATOM     27  C   UNL A   1      37.823 -35.897 -31.722  0.00  0.00    +0.040 A 
BRANCH  22  29
ATOM     28  C   UNL A   1      37.386 -37.748 -28.419  0.00  0.00    -0.059 C 
ATOM     29  C   UNL A   1      36.898 -37.431 -29.835  0.00  0.00    -0.020 C 
ATOM     30  C   UNL A   1      36.277 -38.683 -30.472  0.00  0.00    -0.059 C 
ENDBRANCH  22  29
ENDBRANCH  18  27
ENDBRANCH  17  19
ENDBRANCH   1  17
TORSDOF 4
ENDMDL
MODEL 10
REMARK VINA RESULT:    -7.087      4.497      6.015
REMARK INTER + INTRA:         -10.142
REMARK INTER:                  -9.596
REMARK INTRA:                  -0.546
REMARK UNBOUND:                -1.398
REMARK  Name = cpd274.pdb
REMARK  9 active torsions:
REMARK  status: ('A' for Active; 'I' for Inactive)
REMARK    1  A    between atoms: C_1  and  C_2
REMARK    2  A    between atoms: C_2  and  C_3
REMARK    3  A    between atoms: C_2  and  C_4
REMARK    4  A    between atoms: C_9  and  N_10
REMARK    5  A    between atoms: C_11  and  O_13
REMARK    6  A    between atoms: O_13  and  C_14
REMARK    7  A    between atoms: C_20  and  C_21
REMARK    8  A    between atoms: N_24  and  C_25
REMARK    9  A    between atoms: N_28  and  C_29
REMARK                            x       y       z     vdW  Elec       q    Type
REMARK                         _______ _______ _______ _____ _____    ______ ____
ROOT
ATOM      1  C   UNL A   1      33.976 -36.685 -32.310  0.00  0.00    +0.134 A 
ATOM      2  C   UNL A   1      32.942 -36.471 -33.224  0.00  0.00    -0.017 A 
ATOM      3  C   UNL A   1      32.129 -37.538 -33.599  0.00  0.00    -0.037 A 
ATOM      4  C   UNL A   1      32.425 -38.816 -33.141  0.00  0.00    +0.032 A 
ATOM      5  C   UNL A   1      33.542 -39.030 -32.342  0.00  0.00    -0.017 A 
ATOM      6  C   UNL A   1      34.318 -37.969 -31.887  0.00  0.00    -0.014 A 
ATOM      7  C   UNL A   1      33.666 -40.503 -32.066  0.00  0.00    +0.002 C 
ATOM      8  C   UNL A   1      35.106 -40.988 -32.279  0.00  0.00    -0.055 C 
ATOM      9  C   UNL A   1      33.115 -40.825 -30.694  0.00  0.00    -0.054 C 
ATOM     10  C   UNL A   1      32.709 -42.253 -30.838  0.00  0.00    -0.048 C 
ATOM     11  N   UNL A   1      32.147 -42.394 -32.229  0.00  0.00    +0.433 N 
ATOM     12  C   UNL A   1      30.642 -42.390 -32.147  0.00  0.00    -0.060 C 
ATOM     13  O   UNL A   1      32.551 -43.624 -32.732  0.00  0.00    -0.289 OA
ATOM     14  C   UNL A   1      32.718 -41.203 -33.186  0.00  0.00    +0.039 C 
ATOM     15  N   UNL A   1      31.679 -39.991 -33.337  0.00  0.00    -0.341 N 
ATOM     16  C   UNL A   1      30.829 -39.969 -34.541  0.00  0.00    -0.001 C 
ENDROOT
BRANCH   1  17
ATOM     17  O   UNL A   1      34.740 -35.604 -31.798  0.00  0.00    -0.411 OA
BRANCH  17  19
ATOM     18  N   UNL A   1      36.906 -36.415 -31.370  0.00  0.00    -0.251 N 
ATOM     19  C   UNL A   1      35.840 -35.669 -30.905  0.00  0.00    +0.410 C 
ATOM     20  O   UNL A   1      35.768 -35.072 -29.838  0.00  0.00    -0.226 OA
ATOM     21  H   UNL A   1      36.853 -36.689 -32.314  0.00  0.00    +0.000 HD
BRANCH  18  27
ATOM     22  C   UNL A   1      39.350 -36.418 -31.107  0.00  0.00    -0.024 A 
ATOM     23  C   UNL A   1      40.484 -36.912 -30.421  0.00  0.00    -0.057 A 
ATOM     24  C   UNL A   1      40.365 -37.765 -29.327  0.00  0.00    -0.061 A 
ATOM     25  C   UNL A   1      39.107 -38.155 -28.898  0.00  0.00    -0.060 A 
ATOM     26  C   UNL A   1      37.969 -37.699 -29.568  0.00  0.00    -0.040 A 
ATOM     27  C   UNL A   1      38.064 -36.837 -30.672  0.00  0.00    +0.040 A 
BRANCH  22  29
ATOM     28  C   UNL A   1      40.916 -35.895 -32.997  0.00  0.00    -0.059 C 
ATOM     29  C   UNL A   1      39.584 -35.535 -32.335  0.00  0.00    -0.020 C 
ATOM     30  C   UNL A   1      39.532 -34.030 -32.035  0.00  0.00    -0.059 C 
ENDBRANCH  22  29
ENDBRANCH  18  27
ENDBRANCH  17  19
ENDBRANCH   1  17
TORSDOF 4
ENDMDL
MODEL 11
REMARK VINA RESULT:    -7.034     26.053     28.655
REMARK INTER + INTRA:         -10.076
REMARK INTER:                  -9.322
REMARK INTRA:                  -0.754
REMARK UNBOUND:                -1.398
REMARK  Name = cpd274.pdb
REMARK  9 active torsions:
REMARK  status: ('A' for Active; 'I' for Inactive)
REMARK    1  A    between atoms: C_1  and  C_2
REMARK    2  A    between atoms: C_2  and  C_3
REMARK    3  A    between atoms: C_2  and  C_4
REMARK    4  A    between atoms: C_9  and  N_10
REMARK    5  A    between atoms: C_11  and  O_13
REMARK    6  A    between atoms: O_13  and  C_14
REMARK    7  A    between atoms: C_20  and  C_21
REMARK    8  A    between atoms: N_24  and  C_25
REMARK    9  A    between atoms: N_28  and  C_29
REMARK                            x       y       z     vdW  Elec       q    Type
REMARK                         _______ _______ _______ _____ _____    ______ ____
ROOT
ATOM      1  C   UNL A   1      47.222 -31.373 -53.320  0.00  0.00    +0.134 A 
ATOM      2  C   UNL A   1      47.371 -30.084 -52.805  0.00  0.00    -0.017 A 
ATOM      3  C   UNL A   1      47.405 -29.000 -53.679  0.00  0.00    -0.037 A 
ATOM      4  C   UNL A   1      47.397 -29.226 -55.050  0.00  0.00    +0.032 A 
ATOM      5  C   UNL A   1      47.387 -30.525 -55.543  0.00  0.00    -0.017 A 
ATOM      6  C   UNL A   1      47.269 -31.619 -54.692  0.00  0.00    -0.014 A 
ATOM      7  C   UNL A   1      47.466 -30.475 -57.044  0.00  0.00    +0.002 C 
ATOM      8  C   UNL A   1      48.508 -31.465 -57.578  0.00  0.00    -0.055 C 
ATOM      9  C   UNL A   1      46.089 -30.660 -57.645  0.00  0.00    -0.054 C 
ATOM     10  C   UNL A   1      46.215 -29.961 -58.956  0.00  0.00    -0.048 C 
ATOM     11  N   UNL A   1      47.071 -28.746 -58.707  0.00  0.00    +0.433 N 
ATOM     12  C   UNL A   1      46.178 -27.536 -58.599  0.00  0.00    -0.060 C 
ATOM     13  O   UNL A   1      47.903 -28.575 -59.806  0.00  0.00    -0.289 OA
ATOM     14  C   UNL A   1      47.978 -28.966 -57.369  0.00  0.00    +0.039 C 
ATOM     15  N   UNL A   1      47.337 -28.267 -56.076  0.00  0.00    -0.341 N 
ATOM     16  C   UNL A   1      47.856 -26.942 -55.691  0.00  0.00    -0.001 C 
ENDROOT
BRANCH   1  17
ATOM     17  O   UNL A   1      47.047 -32.491 -52.463  0.00  0.00    -0.411 OA
BRANCH  17  19
ATOM     18  N   UNL A   1      45.873 -34.330 -53.343  0.00  0.00    -0.251 N 
ATOM     19  C   UNL A   1      47.064 -33.865 -52.819  0.00  0.00    +0.410 C 
ATOM     20  O   UNL A   1      48.096 -34.503 -52.654  0.00  0.00    -0.226 OA
ATOM     21  H   UNL A   1      45.202 -33.640 -53.551  0.00  0.00    +0.000 HD
BRANCH  18  27
ATOM     22  C   UNL A   1      45.143 -36.046 -54.944  0.00  0.00    -0.024 A 
ATOM     23  C   UNL A   1      44.704 -37.371 -55.168  0.00  0.00    -0.057 A 
ATOM     24  C   UNL A   1      44.631 -38.304 -54.136  0.00  0.00    -0.061 A 
ATOM     25  C   UNL A   1      44.986 -37.929 -52.851  0.00  0.00    -0.060 A 
ATOM     26  C   UNL A   1      45.405 -36.621 -52.595  0.00  0.00    -0.040 A 
ATOM     27  C   UNL A   1      45.487 -35.664 -53.620  0.00  0.00    +0.040 A 
BRANCH  22  29
ATOM     28  C   UNL A   1      46.564 -34.745 -56.554  0.00  0.00    -0.059 C 
ATOM     29  C   UNL A   1      45.131 -35.077 -56.129  0.00  0.00    -0.020 C 
ATOM     30  C   UNL A   1      44.345 -33.785 -55.866  0.00  0.00    -0.059 C 
ENDBRANCH  22  29
ENDBRANCH  18  27
ENDBRANCH  17  19
ENDBRANCH   1  17
TORSDOF 4
ENDMDL
MODEL 12
REMARK VINA RESULT:    -6.996      2.235      7.789
REMARK INTER + INTRA:         -10.029
REMARK INTER:                  -8.545
REMARK INTRA:                  -1.484
REMARK UNBOUND:                -1.398
REMARK  Name = cpd274.pdb
REMARK  9 active torsions:
REMARK  status: ('A' for Active; 'I' for Inactive)
REMARK    1  A    between atoms: C_1  and  C_2
REMARK    2  A    between atoms: C_2  and  C_3
REMARK    3  A    between atoms: C_2  and  C_4
REMARK    4  A    between atoms: C_9  and  N_10
REMARK    5  A    between atoms: C_11  and  O_13
REMARK    6  A    between atoms: O_13  and  C_14
REMARK    7  A    between atoms: C_20  and  C_21
REMARK    8  A    between atoms: N_24  and  C_25
REMARK    9  A    between atoms: N_28  and  C_29
REMARK                            x       y       z     vdW  Elec       q    Type
REMARK                         _______ _______ _______ _____ _____    ______ ____
ROOT
ATOM      1  C   UNL A   1      35.784 -34.562 -30.600  0.00  0.00    +0.134 A 
ATOM      2  C   UNL A   1      37.080 -35.056 -30.762  0.00  0.00    -0.017 A 
ATOM      3  C   UNL A   1      37.404 -36.307 -30.241  0.00  0.00    -0.037 A 
ATOM      4  C   UNL A   1      36.467 -36.994 -29.479  0.00  0.00    +0.032 A 
ATOM      5  C   UNL A   1      35.228 -36.422 -29.214  0.00  0.00    -0.017 A 
ATOM      6  C   UNL A   1      34.852 -35.214 -29.793  0.00  0.00    -0.014 A 
ATOM      7  C   UNL A   1      34.454 -37.339 -28.308  0.00  0.00    +0.002 C 
ATOM      8  C   UNL A   1      33.816 -36.564 -27.148  0.00  0.00    -0.055 C 
ATOM      9  C   UNL A   1      33.463 -38.152 -29.112  0.00  0.00    -0.054 C 
ATOM     10  C   UNL A   1      33.292 -39.372 -28.271  0.00  0.00    -0.048 C 
ATOM     11  N   UNL A   1      34.650 -39.684 -27.697  0.00  0.00    +0.433 N 
ATOM     12  C   UNL A   1      35.267 -40.806 -28.493  0.00  0.00    -0.060 C 
ATOM     13  O   UNL A   1      34.475 -40.124 -26.391  0.00  0.00    -0.289 OA
ATOM     14  C   UNL A   1      35.578 -38.342 -27.697  0.00  0.00    +0.039 C 
ATOM     15  N   UNL A   1      36.577 -38.292 -28.950  0.00  0.00    -0.341 N 
ATOM     16  C   UNL A   1      37.966 -38.735 -28.733  0.00  0.00    -0.001 C 
ENDROOT
BRANCH   1  17
ATOM     17  O   UNL A   1      35.373 -33.357 -31.229  0.00  0.00    -0.411 OA
BRANCH  17  19
ATOM     18  N   UNL A   1      33.501 -32.198 -30.403  0.00  0.00    -0.251 N 
ATOM     19  C   UNL A   1      34.046 -32.909 -31.454  0.00  0.00    +0.410 C 
ATOM     20  O   UNL A   1      33.512 -33.164 -32.527  0.00  0.00    -0.226 OA
ATOM     21  H   UNL A   1      34.128 -31.952 -29.685  0.00  0.00    +0.000 HD
BRANCH  18  27
ATOM     22  C   UNL A   1      31.227 -32.634 -29.576  0.00  0.00    -0.024 A 
ATOM     23  C   UNL A   1      29.886 -32.201 -29.466  0.00  0.00    -0.057 A 
ATOM     24  C   UNL A   1      29.474 -30.958 -29.940  0.00  0.00    -0.061 A 
ATOM     25  C   UNL A   1      30.395 -30.121 -30.548  0.00  0.00    -0.060 A 
ATOM     26  C   UNL A   1      31.724 -30.529 -30.689  0.00  0.00    -0.040 A 
ATOM     27  C   UNL A   1      32.161 -31.777 -30.217  0.00  0.00    +0.040 A 
BRANCH  22  29
ATOM     28  C   UNL A   1      31.193 -35.080 -30.139  0.00  0.00    -0.059 C 
ATOM     29  C   UNL A   1      31.569 -34.040 -29.079  0.00  0.00    -0.020 C 
ATOM     30  C   UNL A   1      30.921 -34.399 -27.734  0.00  0.00    -0.059 C 
ENDBRANCH  22  29
ENDBRANCH  18  27
ENDBRANCH  17  19
ENDBRANCH   1  17
TORSDOF 4
ENDMDL
MODEL 13
REMARK VINA RESULT:    -6.927      2.640      4.464
REMARK INTER + INTRA:          -9.944
REMARK INTER:                  -9.120
REMARK INTRA:                  -0.824
REMARK UNBOUND:                -1.398
REMARK  Name = cpd274.pdb
REMARK  9 active torsions:
REMARK  status: ('A' for Active; 'I' for Inactive)
REMARK    1  A    between atoms: C_1  and  C_2
REMARK    2  A    between atoms: C_2  and  C_3
REMARK    3  A    between atoms: C_2  and  C_4
REMARK    4  A    between atoms: C_9  and  N_10
REMARK    5  A    between atoms: C_11  and  O_13
REMARK    6  A    between atoms: O_13  and  C_14
REMARK    7  A    between atoms: C_20  and  C_21
REMARK    8  A    between atoms: N_24  and  C_25
REMARK    9  A    between atoms: N_28  and  C_29
REMARK                            x       y       z     vdW  Elec       q    Type
REMARK                         _______ _______ _______ _____ _____    ______ ____
ROOT
ATOM      1  C   UNL A   1      33.979 -35.648 -30.985  0.00  0.00    +0.134 A 
ATOM      2  C   UNL A   1      33.139 -36.501 -31.704  0.00  0.00    -0.017 A 
ATOM      3  C   UNL A   1      32.205 -37.276 -31.021  0.00  0.00    -0.037 A 
ATOM      4  C   UNL A   1      32.194 -37.267 -29.631  0.00  0.00    +0.032 A 
ATOM      5  C   UNL A   1      33.131 -36.516 -28.931  0.00  0.00    -0.017 A 
ATOM      6  C   UNL A   1      34.017 -35.671 -29.591  0.00  0.00    -0.014 A 
ATOM      7  C   UNL A   1      32.943 -36.757 -27.459  0.00  0.00    +0.002 C 
ATOM      8  C   UNL A   1      34.284 -37.025 -26.765  0.00  0.00    -0.055 C 
ATOM      9  C   UNL A   1      32.156 -35.621 -26.841  0.00  0.00    -0.054 C 
ATOM     10  C   UNL A   1      31.520 -36.276 -25.662  0.00  0.00    -0.048 C 
ATOM     11  N   UNL A   1      31.141 -37.666 -26.104  0.00  0.00    +0.433 N 
ATOM     12  C   UNL A   1      29.665 -37.691 -26.412  0.00  0.00    -0.060 C 
ATOM     13  O   UNL A   1      31.378 -38.533 -25.046  0.00  0.00    -0.289 OA
ATOM     14  C   UNL A   1      32.047 -38.112 -27.384  0.00  0.00    +0.039 C 
ATOM     15  N   UNL A   1      31.279 -37.907 -28.777  0.00  0.00    -0.341 N 
ATOM     16  C   UNL A   1      30.624 -39.085 -29.373  0.00  0.00    -0.001 C 
ENDROOT
BRANCH   1  17
ATOM     17  O   UNL A   1      34.850 -34.744 -31.647  0.00  0.00    -0.411 OA
BRANCH  17  19
ATOM     18  N   UNL A   1      36.973 -35.705 -31.966  0.00  0.00    -0.251 N 
ATOM     19  C   UNL A   1      36.255 -34.625 -31.490  0.00  0.00    +0.410 C 
ATOM     20  O   UNL A   1      36.706 -33.608 -30.978  0.00  0.00    -0.226 OA
ATOM     21  H   UNL A   1      36.458 -36.360 -32.490  0.00  0.00    +0.000 HD
BRANCH  18  27
ATOM     22  C   UNL A   1      38.762 -36.973 -30.856  0.00  0.00    -0.024 A 
ATOM     23  C   UNL A   1      40.148 -37.190 -30.678  0.00  0.00    -0.057 A 
ATOM     24  C   UNL A   1      41.101 -36.498 -31.422  0.00  0.00    -0.061 A 
ATOM     25  C   UNL A   1      40.689 -35.561 -32.355  0.00  0.00    -0.060 A 
ATOM     26  C   UNL A   1      39.327 -35.310 -32.539  0.00  0.00    -0.040 A 
ATOM     27  C   UNL A   1      38.349 -35.997 -31.802  0.00  0.00    +0.040 A 
BRANCH  22  29
ATOM     28  C   UNL A   1      36.632 -38.297 -30.773  0.00  0.00    -0.059 C 
ATOM     29  C   UNL A   1      37.795 -37.738 -29.950  0.00  0.00    -0.020 C 
ATOM     30  C   UNL A   1      37.259 -36.909 -28.774  0.00  0.00    -0.059 C 
ENDBRANCH  22  29
ENDBRANCH  18  27
ENDBRANCH  17  19
ENDBRANCH   1  17
TORSDOF 4
ENDMDL
MODEL 14
REMARK VINA RESULT:    -6.919     16.148     18.607
REMARK INTER + INTRA:          -9.935
REMARK INTER:                  -9.224
REMARK INTRA:                  -0.711
REMARK UNBOUND:                -1.398
REMARK  Name = cpd274.pdb
REMARK  9 active torsions:
REMARK  status: ('A' for Active; 'I' for Inactive)
REMARK    1  A    between atoms: C_1  and  C_2
REMARK    2  A    between atoms: C_2  and  C_3
REMARK    3  A    between atoms: C_2  and  C_4
REMARK    4  A    between atoms: C_9  and  N_10
REMARK    5  A    between atoms: C_11  and  O_13
REMARK    6  A    between atoms: O_13  and  C_14
REMARK    7  A    between atoms: C_20  and  C_21
REMARK    8  A    between atoms: N_24  and  C_25
REMARK    9  A    between atoms: N_28  and  C_29
REMARK                            x       y       z     vdW  Elec       q    Type
REMARK                         _______ _______ _______ _____ _____    ______ ____
ROOT
ATOM      1  C   UNL A   1      40.806 -22.401 -37.009  0.00  0.00    +0.134 A 
ATOM      2  C   UNL A   1      39.699 -23.118 -36.552  0.00  0.00    -0.017 A 
ATOM      3  C   UNL A   1      38.977 -22.638 -35.462  0.00  0.00    -0.037 A 
ATOM      4  C   UNL A   1      39.431 -21.515 -34.782  0.00  0.00    +0.032 A 
ATOM      5  C   UNL A   1      40.614 -20.896 -35.168  0.00  0.00    -0.017 A 
ATOM      6  C   UNL A   1      41.305 -21.305 -36.304  0.00  0.00    -0.014 A 
ATOM      7  C   UNL A   1      40.906 -19.770 -34.216  0.00  0.00    +0.002 C 
ATOM      8  C   UNL A   1      42.371 -19.794 -33.760  0.00  0.00    -0.055 C 
ATOM      9  C   UNL A   1      40.481 -18.450 -34.823  0.00  0.00    -0.054 C 
ATOM     10  C   UNL A   1      40.215 -17.613 -33.617  0.00  0.00    -0.048 C 
ATOM     11  N   UNL A   1      39.581 -18.527 -32.600  0.00  0.00    +0.433 N 
ATOM     12  C   UNL A   1      38.091 -18.293 -32.599  0.00  0.00    -0.060 C 
ATOM     13  O   UNL A   1      40.075 -18.184 -31.348  0.00  0.00    -0.289 OA
ATOM     14  C   UNL A   1      39.963 -20.078 -32.928  0.00  0.00    +0.039 C 
ATOM     15  N   UNL A   1      38.798 -20.838 -33.725  0.00  0.00    -0.341 N 
ATOM     16  C   UNL A   1      37.874 -21.678 -32.943  0.00  0.00    -0.001 C 
ENDROOT
BRANCH   1  17
ATOM     17  O   UNL A   1      41.488 -22.778 -38.196  0.00  0.00    -0.411 OA
BRANCH  17  19
ATOM     18  N   UNL A   1      42.974 -21.252 -39.194  0.00  0.00    -0.251 N 
ATOM     19  C   UNL A   1      41.794 -21.960 -39.314  0.00  0.00    +0.410 C 
ATOM     20  O   UNL A   1      41.026 -21.956 -40.269  0.00  0.00    -0.226 OA
ATOM     21  H   UNL A   1      43.542 -21.499 -38.429  0.00  0.00    +0.000 HD
BRANCH  18  27
ATOM     22  C   UNL A   1      44.404 -20.519 -41.054  0.00  0.00    -0.024 A 
ATOM     23  C   UNL A   1      44.929 -19.451 -41.818  0.00  0.00    -0.057 A 
ATOM     24  C   UNL A   1      44.537 -18.133 -41.601  0.00  0.00    -0.061 A 
ATOM     25  C   UNL A   1      43.618 -17.849 -40.605  0.00  0.00    -0.060 A 
ATOM     26  C   UNL A   1      43.096 -18.881 -39.820  0.00  0.00    -0.040 A 
ATOM     27  C   UNL A   1      43.476 -20.218 -40.022  0.00  0.00    +0.040 A 
BRANCH  22  29
ATOM     28  C   UNL A   1      46.253 -22.146 -40.566  0.00  0.00    -0.059 C 
ATOM     29  C   UNL A   1      44.941 -21.926 -41.326  0.00  0.00    -0.020 C 
ATOM     30  C   UNL A   1      45.136 -22.239 -42.817  0.00  0.00    -0.059 C 
ENDBRANCH  22  29
ENDBRANCH  18  27
ENDBRANCH  17  19
ENDBRANCH   1  17
TORSDOF 4
ENDMDL
MODEL 15
REMARK VINA RESULT:    -6.856     25.917     28.716
REMARK INTER + INTRA:          -9.856
REMARK INTER:                  -8.404
REMARK INTRA:                  -1.453
REMARK UNBOUND:                -1.398
REMARK  Name = cpd274.pdb
REMARK  9 active torsions:
REMARK  status: ('A' for Active; 'I' for Inactive)
REMARK    1  A    between atoms: C_1  and  C_2
REMARK    2  A    between atoms: C_2  and  C_3
REMARK    3  A    between atoms: C_2  and  C_4
REMARK    4  A    between atoms: C_9  and  N_10
REMARK    5  A    between atoms: C_11  and  O_13
REMARK    6  A    between atoms: O_13  and  C_14
REMARK    7  A    between atoms: C_20  and  C_21
REMARK    8  A    between atoms: N_24  and  C_25
REMARK    9  A    between atoms: N_28  and  C_29
REMARK                            x       y       z     vdW  Elec       q    Type
REMARK                         _______ _______ _______ _____ _____    ______ ____
ROOT
ATOM      1  C   UNL A   1      46.528 -33.434 -53.120  0.00  0.00    +0.134 A 
ATOM      2  C   UNL A   1      45.321 -33.933 -52.627  0.00  0.00    -0.017 A 
ATOM      3  C   UNL A   1      44.778 -35.086 -53.189  0.00  0.00    -0.037 A 
ATOM      4  C   UNL A   1      45.389 -35.659 -54.298  0.00  0.00    +0.032 A 
ATOM      5  C   UNL A   1      46.514 -35.066 -54.859  0.00  0.00    -0.017 A 
ATOM      6  C   UNL A   1      47.121 -33.965 -54.265  0.00  0.00    -0.014 A 
ATOM      7  C   UNL A   1      46.911 -35.841 -56.085  0.00  0.00    +0.002 C 
ATOM      8  C   UNL A   1      47.199 -34.905 -57.265  0.00  0.00    -0.055 C 
ATOM      9  C   UNL A   1      48.055 -36.778 -55.761  0.00  0.00    -0.054 C 
ATOM     10  C   UNL A   1      47.884 -37.857 -56.776  0.00  0.00    -0.048 C 
ATOM     11  N   UNL A   1      46.399 -38.064 -56.927  0.00  0.00    +0.433 N 
ATOM     12  C   UNL A   1      45.997 -39.288 -56.143  0.00  0.00    -0.060 C 
ATOM     13  O   UNL A   1      46.132 -38.301 -58.269  0.00  0.00    -0.289 OA
ATOM     14  C   UNL A   1      45.597 -36.729 -56.442  0.00  0.00    +0.039 C 
ATOM     15  N   UNL A   1      45.044 -36.860 -54.943  0.00  0.00    -0.341 N 
ATOM     16  C   UNL A   1      43.634 -37.250 -54.769  0.00  0.00    -0.001 C 
ENDROOT
BRANCH   1  17
ATOM     17  O   UNL A   1      47.184 -32.344 -52.490  0.00  0.00    -0.411 OA
BRANCH  17  19
ATOM     18  N   UNL A   1      47.030 -30.449 -53.876  0.00  0.00    -0.251 N 
ATOM     19  C   UNL A   1      47.851 -31.259 -53.115  0.00  0.00    +0.410 C 
ATOM     20  O   UNL A   1      49.054 -31.121 -52.927  0.00  0.00    -0.226 OA
ATOM     21  H   UNL A   1      46.064 -30.617 -53.785  0.00  0.00    +0.000 HD
BRANCH  18  27
ATOM     22  C   UNL A   1      47.646 -29.706 -56.137  0.00  0.00    -0.024 A 
ATOM     23  C   UNL A   1      48.063 -28.653 -56.983  0.00  0.00    -0.057 A 
ATOM     24  C   UNL A   1      48.198 -27.347 -56.517  0.00  0.00    -0.061 A 
ATOM     25  C   UNL A   1      47.929 -27.065 -55.189  0.00  0.00    -0.060 A 
ATOM     26  C   UNL A   1      47.534 -28.089 -54.323  0.00  0.00    -0.040 A 
ATOM     27  C   UNL A   1      47.390 -29.412 -54.770  0.00  0.00    +0.040 A 
BRANCH  22  29
ATOM     28  C   UNL A   1      48.988 -31.735 -56.758  0.00  0.00    -0.059 C 
ATOM     29  C   UNL A   1      47.587 -31.117 -56.726  0.00  0.00    -0.020 C 
ATOM     30  C   UNL A   1      46.949 -31.181 -58.121  0.00  0.00    -0.059 C 
ENDBRANCH  22  29
ENDBRANCH  18  27
ENDBRANCH  17  19
ENDBRANCH   1  17
TORSDOF 4
ENDMDL
MODEL 16
REMARK VINA RESULT:    -6.839     16.408     18.835
REMARK INTER + INTRA:          -9.836
REMARK INTER:                  -8.403
REMARK INTRA:                  -1.433
REMARK UNBOUND:                -1.398
REMARK  Name = cpd274.pdb
REMARK  9 active torsions:
REMARK  status: ('A' for Active; 'I' for Inactive)
REMARK    1  A    between atoms: C_1  and  C_2
REMARK    2  A    between atoms: C_2  and  C_3
REMARK    3  A    between atoms: C_2  and  C_4
REMARK    4  A    between atoms: C_9  and  N_10
REMARK    5  A    between atoms: C_11  and  O_13
REMARK    6  A    between atoms: O_13  and  C_14
REMARK    7  A    between atoms: C_20  and  C_21
REMARK    8  A    between atoms: N_24  and  C_25
REMARK    9  A    between atoms: N_28  and  C_29
REMARK                            x       y       z     vdW  Elec       q    Type
REMARK                         _______ _______ _______ _____ _____    ______ ____
ROOT
ATOM      1  C   UNL A   1      40.706 -22.352 -37.031  0.00  0.00    +0.134 A 
ATOM      2  C   UNL A   1      39.695 -23.007 -36.326  0.00  0.00    -0.017 A 
ATOM      3  C   UNL A   1      39.107 -22.377 -35.231  0.00  0.00    -0.037 A 
ATOM      4  C   UNL A   1      39.608 -21.157 -34.795  0.00  0.00    +0.032 A 
ATOM      5  C   UNL A   1      40.706 -20.587 -35.427  0.00  0.00    -0.017 A 
ATOM      6  C   UNL A   1      41.255 -21.155 -36.572  0.00  0.00    -0.014 A 
ATOM      7  C   UNL A   1      41.083 -19.324 -34.702  0.00  0.00    +0.002 C 
ATOM      8  C   UNL A   1      42.594 -19.257 -34.451  0.00  0.00    -0.055 C 
ATOM      9  C   UNL A   1      40.535 -18.119 -35.436  0.00  0.00    -0.054 C 
ATOM     10  C   UNL A   1      40.402 -17.112 -34.344  0.00  0.00    -0.048 C 
ATOM     11  N   UNL A   1      39.940 -17.868 -33.125  0.00  0.00    +0.433 N 
ATOM     12  C   UNL A   1      38.457 -17.658 -32.957  0.00  0.00    -0.060 C 
ATOM     13  O   UNL A   1      40.583 -17.331 -32.017  0.00  0.00    -0.289 OA
ATOM     14  C   UNL A   1      40.330 -19.446 -33.266  0.00  0.00    +0.039 C 
ATOM     15  N   UNL A   1      39.096 -20.335 -33.775  0.00  0.00    -0.341 N 
ATOM     16  C   UNL A   1      38.314 -21.060 -32.757  0.00  0.00    -0.001 C 
ENDROOT
BRANCH   1  17
ATOM     17  O   UNL A   1      41.237 -22.897 -38.230  0.00  0.00    -0.411 OA
BRANCH  17  19
ATOM     18  N   UNL A   1      42.838 -21.725 -39.494  0.00  0.00    -0.251 N 
ATOM     19  C   UNL A   1      41.545 -22.206 -39.431  0.00  0.00    +0.410 C 
ATOM     20  O   UNL A   1      40.678 -22.107 -40.291  0.00  0.00    -0.226 OA
ATOM     21  H   UNL A   1      43.443 -22.036 -38.782  0.00  0.00    +0.000 HD
BRANCH  18  27
ATOM     22  C   UNL A   1      43.525 -19.459 -40.155  0.00  0.00    -0.024 A 
ATOM     23  C   UNL A   1      44.045 -18.605 -41.154  0.00  0.00    -0.057 A 
ATOM     24  C   UNL A   1      44.470 -19.093 -42.387  0.00  0.00    -0.061 A 
ATOM     25  C   UNL A   1      44.373 -20.448 -42.656  0.00  0.00    -0.060 A 
ATOM     26  C   UNL A   1      43.844 -21.314 -41.695  0.00  0.00    -0.040 A 
ATOM     27  C   UNL A   1      43.411 -20.845 -40.445  0.00  0.00    +0.040 A 
BRANCH  22  29
ATOM     28  C   UNL A   1      41.604 -18.291 -39.038  0.00  0.00    -0.059 C 
ATOM     29  C   UNL A   1      43.028 -18.822 -38.855  0.00  0.00    -0.020 C 
ATOM     30  C   UNL A   1      43.942 -17.709 -38.320  0.00  0.00    -0.059 C 
ENDBRANCH  22  29
ENDBRANCH  18  27
ENDBRANCH  17  19
ENDBRANCH   1  17
TORSDOF 4
ENDMDL
MODEL 17
REMARK VINA RESULT:    -6.816     21.832     24.403
REMARK INTER + INTRA:          -9.807
REMARK INTER:                  -8.867
REMARK INTRA:                  -0.940
REMARK UNBOUND:                -1.398
REMARK  Name = cpd274.pdb
REMARK  9 active torsions:
REMARK  status: ('A' for Active; 'I' for Inactive)
REMARK    1  A    between atoms: C_1  and  C_2
REMARK    2  A    between atoms: C_2  and  C_3
REMARK    3  A    between atoms: C_2  and  C_4
REMARK    4  A    between atoms: C_9  and  N_10
REMARK    5  A    between atoms: C_11  and  O_13
REMARK    6  A    between atoms: O_13  and  C_14
REMARK    7  A    between atoms: C_20  and  C_21
REMARK    8  A    between atoms: N_24  and  C_25
REMARK    9  A    between atoms: N_28  and  C_29
REMARK                            x       y       z     vdW  Elec       q    Type
REMARK                         _______ _______ _______ _____ _____    ______ ____
ROOT
ATOM      1  C   UNL A   1      46.227 -17.310 -38.432  0.00  0.00    +0.134 A 
ATOM      2  C   UNL A   1      44.908 -16.856 -38.505  0.00  0.00    -0.017 A 
ATOM      3  C   UNL A   1      44.608 -15.757 -39.306  0.00  0.00    -0.037 A 
ATOM      4  C   UNL A   1      45.638 -15.066 -39.933  0.00  0.00    +0.032 A 
ATOM      5  C   UNL A   1      46.959 -15.452 -39.736  0.00  0.00    -0.017 A 
ATOM      6  C   UNL A   1      47.276 -16.595 -39.010  0.00  0.00    -0.014 A 
ATOM      7  C   UNL A   1      47.859 -14.488 -40.458  0.00  0.00    +0.002 C 
ATOM      8  C   UNL A   1      49.023 -14.040 -39.565  0.00  0.00    -0.055 C 
ATOM      9  C   UNL A   1      48.301 -15.078 -41.780  0.00  0.00    -0.054 C 
ATOM     10  C   UNL A   1      48.579 -13.862 -42.597  0.00  0.00    -0.048 C 
ATOM     11  N   UNL A   1      47.524 -12.852 -42.225  0.00  0.00    +0.433 N 
ATOM     12  C   UNL A   1      46.463 -12.841 -43.296  0.00  0.00    -0.060 C 
ATOM     13  O   UNL A   1      48.121 -11.598 -42.193  0.00  0.00    -0.289 OA
ATOM     14  C   UNL A   1      46.913 -13.199 -40.753  0.00  0.00    +0.039 C 
ATOM     15  N   UNL A   1      45.526 -13.999 -40.842  0.00  0.00    -0.341 N 
ATOM     16  C   UNL A   1      44.282 -13.222 -40.703  0.00  0.00    -0.001 C 
ENDROOT
BRANCH   1  17
ATOM     17  O   UNL A   1      46.555 -18.504 -37.738  0.00  0.00    -0.411 OA
BRANCH  17  19
ATOM     18  N   UNL A   1      47.159 -19.930 -39.509  0.00  0.00    -0.251 N 
ATOM     19  C   UNL A   1      46.586 -19.825 -38.257  0.00  0.00    +0.410 C 
ATOM     20  O   UNL A   1      46.133 -20.736 -37.575  0.00  0.00    -0.226 OA
ATOM     21  H   UNL A   1      47.614 -19.121 -39.838  0.00  0.00    +0.000 HD
BRANCH  18  27
ATOM     22  C   UNL A   1      46.154 -21.210 -41.352  0.00  0.00    -0.024 A 
ATOM     23  C   UNL A   1      46.179 -22.367 -42.163  0.00  0.00    -0.057 A 
ATOM     24  C   UNL A   1      47.191 -23.318 -42.055  0.00  0.00    -0.061 A 
ATOM     25  C   UNL A   1      48.199 -23.139 -41.123  0.00  0.00    -0.060 A 
ATOM     26  C   UNL A   1      48.191 -22.015 -40.292  0.00  0.00    -0.040 A 
ATOM     27  C   UNL A   1      47.182 -21.044 -40.384  0.00  0.00    +0.040 A 
BRANCH  22  29
ATOM     28  C   UNL A   1      43.762 -20.784 -40.723  0.00  0.00    -0.059 C 
ATOM     29  C   UNL A   1      44.969 -20.254 -41.502  0.00  0.00    -0.020 C 
ATOM     30  C   UNL A   1      44.576 -19.977 -42.960  0.00  0.00    -0.059 C 
ENDBRANCH  22  29
ENDBRANCH  18  27
ENDBRANCH  17  19
ENDBRANCH   1  17
TORSDOF 4
ENDMDL
MODEL 18
REMARK VINA RESULT:    -6.794     16.479     18.958
REMARK INTER + INTRA:          -9.780
REMARK INTER:                  -9.036
REMARK INTRA:                  -0.744
REMARK UNBOUND:                -1.398
REMARK  Name = cpd274.pdb
REMARK  9 active torsions:
REMARK  status: ('A' for Active; 'I' for Inactive)
REMARK    1  A    between atoms: C_1  and  C_2
REMARK    2  A    between atoms: C_2  and  C_3
REMARK    3  A    between atoms: C_2  and  C_4
REMARK    4  A    between atoms: C_9  and  N_10
REMARK    5  A    between atoms: C_11  and  O_13
REMARK    6  A    between atoms: O_13  and  C_14
REMARK    7  A    between atoms: C_20  and  C_21
REMARK    8  A    between atoms: N_24  and  C_25
REMARK    9  A    between atoms: N_28  and  C_29
REMARK                            x       y       z     vdW  Elec       q    Type
REMARK                         _______ _______ _______ _____ _____    ______ ____
ROOT
ATOM      1  C   UNL A   1      41.164 -21.481 -38.607  0.00  0.00    +0.134 A 
ATOM      2  C   UNL A   1      40.429 -20.422 -39.142  0.00  0.00    -0.017 A 
ATOM      3  C   UNL A   1      39.566 -19.704 -38.318  0.00  0.00    -0.037 A 
ATOM      4  C   UNL A   1      39.369 -20.119 -37.007  0.00  0.00    +0.032 A 
ATOM      5  C   UNL A   1      40.006 -21.260 -36.533  0.00  0.00    -0.017 A 
ATOM      6  C   UNL A   1      40.936 -21.943 -37.310  0.00  0.00    -0.014 A 
ATOM      7  C   UNL A   1      39.551 -21.520 -35.123  0.00  0.00    +0.002 C 
ATOM      8  C   UNL A   1      39.180 -22.994 -34.923  0.00  0.00    -0.055 C 
ATOM      9  C   UNL A   1      40.586 -21.016 -34.140  0.00  0.00    -0.054 C 
ATOM     10  C   UNL A   1      39.767 -20.739 -32.926  0.00  0.00    -0.048 C 
ATOM     11  N   UNL A   1      38.459 -20.176 -33.418  0.00  0.00    +0.433 N 
ATOM     12  C   UNL A   1      38.484 -18.676 -33.255  0.00  0.00    -0.060 C 
ATOM     13  O   UNL A   1      37.444 -20.682 -32.616  0.00  0.00    -0.289 OA
ATOM     14  C   UNL A   1      38.203 -20.625 -34.965  0.00  0.00    +0.039 C 
ATOM     15  N   UNL A   1      38.614 -19.479 -36.009  0.00  0.00    -0.341 N 
ATOM     16  C   UNL A   1      37.539 -18.617 -36.531  0.00  0.00    -0.001 C 
ENDROOT
BRANCH   1  17
ATOM     17  O   UNL A   1      42.153 -22.151 -39.373  0.00  0.00    -0.411 OA
BRANCH  17  19
ATOM     18  N   UNL A   1      44.236 -21.119 -39.736  0.00  0.00    -0.251 N 
ATOM     19  C   UNL A   1      43.062 -21.580 -40.301  0.00  0.00    +0.410 C 
ATOM     20  O   UNL A   1      42.755 -21.554 -41.486  0.00  0.00    -0.226 OA
ATOM     21  H   UNL A   1      44.380 -21.367 -38.794  0.00  0.00    +0.000 HD
BRANCH  18  27
ATOM     22  C   UNL A   1      46.298 -20.965 -41.065  0.00  0.00    -0.024 A 
ATOM     23  C   UNL A   1      47.333 -20.156 -41.587  0.00  0.00    -0.057 A 
ATOM     24  C   UNL A   1      47.337 -18.773 -41.423  0.00  0.00    -0.061 A 
ATOM     25  C   UNL A   1      46.309 -18.167 -40.720  0.00  0.00    -0.060 A 
ATOM     26  C   UNL A   1      45.283 -18.942 -40.174  0.00  0.00    -0.040 A 
ATOM     27  C   UNL A   1      45.258 -20.338 -40.328  0.00  0.00    +0.040 A 
BRANCH  22  29
ATOM     28  C   UNL A   1      47.750 -22.978 -40.686  0.00  0.00    -0.059 C 
ATOM     29  C   UNL A   1      46.414 -22.481 -41.245  0.00  0.00    -0.020 C 
ATOM     30  C   UNL A   1      46.242 -22.948 -42.697  0.00  0.00    -0.059 C 
ENDBRANCH  22  29
ENDBRANCH  18  27
ENDBRANCH  17  19
ENDBRANCH   1  17
TORSDOF 4
ENDMDL
MODEL 19
REMARK VINA RESULT:    -6.718     16.070     18.594
REMARK INTER + INTRA:          -9.686
REMARK INTER:                  -8.598
REMARK INTRA:                  -1.089
REMARK UNBOUND:                -1.398
REMARK  Name = cpd274.pdb
REMARK  9 active torsions:
REMARK  status: ('A' for Active; 'I' for Inactive)
REMARK    1  A    between atoms: C_1  and  C_2
REMARK    2  A    between atoms: C_2  and  C_3
REMARK    3  A    between atoms: C_2  and  C_4
REMARK    4  A    between atoms: C_9  and  N_10
REMARK    5  A    between atoms: C_11  and  O_13
REMARK    6  A    between atoms: O_13  and  C_14
REMARK    7  A    between atoms: C_20  and  C_21
REMARK    8  A    between atoms: N_24  and  C_25
REMARK    9  A    between atoms: N_28  and  C_29
REMARK                            x       y       z     vdW  Elec       q    Type
REMARK                         _______ _______ _______ _____ _____    ______ ____
ROOT
ATOM      1  C   UNL A   1      40.474 -21.584 -38.685  0.00  0.00    +0.134 A 
ATOM      2  C   UNL A   1      40.115 -20.238 -38.781  0.00  0.00    -0.017 A 
ATOM      3  C   UNL A   1      39.708 -19.555 -37.637  0.00  0.00    -0.037 A 
ATOM      4  C   UNL A   1      39.564 -20.250 -36.442  0.00  0.00    +0.032 A 
ATOM      5  C   UNL A   1      39.794 -21.619 -36.398  0.00  0.00    -0.017 A 
ATOM      6  C   UNL A   1      40.282 -22.305 -37.506  0.00  0.00    -0.014 A 
ATOM      7  C   UNL A   1      39.485 -22.120 -35.015  0.00  0.00    +0.002 C 
ATOM      8  C   UNL A   1      38.626 -23.390 -35.062  0.00  0.00    -0.055 C 
ATOM      9  C   UNL A   1      40.763 -22.281 -34.221  0.00  0.00    -0.054 C 
ATOM     10  C   UNL A   1      40.290 -22.123 -32.815  0.00  0.00    -0.048 C 
ATOM     11  N   UNL A   1      39.228 -21.056 -32.844  0.00  0.00    +0.433 N 
ATOM     12  C   UNL A   1      39.830 -19.759 -32.364  0.00  0.00    -0.060 C 
ATOM     13  O   UNL A   1      38.225 -21.423 -31.956  0.00  0.00    -0.289 OA
ATOM     14  C   UNL A   1      38.603 -20.929 -34.345  0.00  0.00    +0.039 C 
ATOM     15  N   UNL A   1      39.252 -19.722 -35.177  0.00  0.00    -0.341 N 
ATOM     16  C   UNL A   1      38.510 -18.450 -35.223  0.00  0.00    -0.001 C 
ENDROOT
BRANCH   1  17
ATOM     17  O   UNL A   1      41.022 -22.280 -39.794  0.00  0.00    -0.411 OA
BRANCH  17  19
ATOM     18  N   UNL A   1      43.303 -21.705 -39.789  0.00  0.00    -0.251 N 
ATOM     19  C   UNL A   1      42.172 -21.933 -40.549  0.00  0.00    +0.410 C 
ATOM     20  O   UNL A   1      42.081 -21.879 -41.769  0.00  0.00    -0.226 OA
ATOM     21  H   UNL A   1      43.234 -21.950 -38.838  0.00  0.00    +0.000 HD
BRANCH  18  27
ATOM     22  C   UNL A   1      44.769 -19.764 -40.145  0.00  0.00    -0.024 A 
ATOM     23  C   UNL A   1      46.003 -19.261 -40.616  0.00  0.00    -0.057 A 
ATOM     24  C   UNL A   1      47.005 -20.104 -41.092  0.00  0.00    -0.061 A 
ATOM     25  C   UNL A   1      46.791 -21.471 -41.118  0.00  0.00    -0.060 A 
ATOM     26  C   UNL A   1      45.573 -21.997 -40.678  0.00  0.00    -0.040 A 
ATOM     27  C   UNL A   1      44.549 -21.167 -40.194  0.00  0.00    +0.040 A 
BRANCH  22  29
ATOM     28  C   UNL A   1      43.895 -17.429 -40.442  0.00  0.00    -0.059 C 
ATOM     29  C   UNL A   1      43.708 -18.755 -39.699  0.00  0.00    -0.020 C 
ATOM     30  C   UNL A   1      43.680 -18.512 -38.184  0.00  0.00    -0.059 C 
ENDBRANCH  22  29
ENDBRANCH  18  27
ENDBRANCH  17  19
ENDBRANCH   1  17
TORSDOF 4
ENDMDL
MODEL 20
REMARK VINA RESULT:    -6.546     17.357     19.879
REMARK INTER + INTRA:          -9.474
REMARK INTER:                  -8.720
REMARK INTRA:                  -0.754
REMARK UNBOUND:                -1.398
REMARK  Name = cpd274.pdb
REMARK  9 active torsions:
REMARK  status: ('A' for Active; 'I' for Inactive)
REMARK    1  A    between atoms: C_1  and  C_2
REMARK    2  A    between atoms: C_2  and  C_3
REMARK    3  A    between atoms: C_2  and  C_4
REMARK    4  A    between atoms: C_9  and  N_10
REMARK    5  A    between atoms: C_11  and  O_13
REMARK    6  A    between atoms: O_13  and  C_14
REMARK    7  A    between atoms: C_20  and  C_21
REMARK    8  A    between atoms: N_24  and  C_25
REMARK    9  A    between atoms: N_28  and  C_29
REMARK                            x       y       z     vdW  Elec       q    Type
REMARK                         _______ _______ _______ _____ _____    ______ ____
ROOT
ATOM      1  C   UNL A   1      41.980 -21.522 -38.212  0.00  0.00    +0.134 A 
ATOM      2  C   UNL A   1      40.997 -22.002 -37.345  0.00  0.00    -0.017 A 
ATOM      3  C   UNL A   1      40.957 -21.538 -36.032  0.00  0.00    -0.037 A 
ATOM      4  C   UNL A   1      41.959 -20.688 -35.577  0.00  0.00    +0.032 A 
ATOM      5  C   UNL A   1      43.007 -20.332 -36.417  0.00  0.00    -0.017 A 
ATOM      6  C   UNL A   1      43.022 -20.714 -37.754  0.00  0.00    -0.014 A 
ATOM      7  C   UNL A   1      43.979 -19.483 -35.647  0.00  0.00    +0.002 C 
ATOM      8  C   UNL A   1      45.423 -19.946 -35.875  0.00  0.00    -0.055 C 
ATOM      9  C   UNL A   1      43.755 -18.019 -35.959  0.00  0.00    -0.054 C 
ATOM     10  C   UNL A   1      44.262 -17.347 -34.728  0.00  0.00    -0.048 C 
ATOM     11  N   UNL A   1      43.858 -18.223 -33.571  0.00  0.00    +0.433 N 
ATOM     12  C   UNL A   1      42.639 -17.626 -32.913  0.00  0.00    -0.060 C 
ATOM     13  O   UNL A   1      44.895 -18.220 -32.647  0.00  0.00    -0.289 OA
ATOM     14  C   UNL A   1      43.596 -19.747 -34.089  0.00  0.00    +0.039 C 
ATOM     15  N   UNL A   1      42.040 -20.053 -34.326  0.00  0.00    -0.341 N 
ATOM     16  C   UNL A   1      41.311 -20.748 -33.251  0.00  0.00    -0.001 C 
ENDROOT
BRANCH   1  17
ATOM     17  O   UNL A   1      41.975 -21.863 -39.590  0.00  0.00    -0.411 OA
BRANCH  17  19
ATOM     18  N   UNL A   1      44.300 -21.956 -39.939  0.00  0.00    -0.251 N 
ATOM     19  C   UNL A   1      43.054 -21.771 -40.507  0.00  0.00    +0.410 C 
ATOM     20  O   UNL A   1      42.807 -21.557 -41.687  0.00  0.00    -0.226 OA
ATOM     21  H   UNL A   1      44.299 -22.276 -39.008  0.00  0.00    +0.000 HD
BRANCH  18  27
ATOM     22  C   UNL A   1      46.074 -20.427 -40.685  0.00  0.00    -0.024 A 
ATOM     23  C   UNL A   1      47.326 -20.258 -41.320  0.00  0.00    -0.057 A 
ATOM     24  C   UNL A   1      48.083 -21.346 -41.750  0.00  0.00    -0.061 A 
ATOM     25  C   UNL A   1      47.600 -22.630 -41.564  0.00  0.00    -0.060 A 
ATOM     26  C   UNL A   1      46.356 -22.827 -40.957  0.00  0.00    -0.040 A 
ATOM     27  C   UNL A   1      45.577 -21.747 -40.515  0.00  0.00    +0.040 A 
BRANCH  22  29
ATOM     28  C   UNL A   1      44.750 -18.482 -41.561  0.00  0.00    -0.059 C 
ATOM     29  C   UNL A   1      45.289 -19.170 -40.303  0.00  0.00    -0.020 C 
ATOM     30  C   UNL A   1      46.091 -18.170 -39.457  0.00  0.00    -0.059 C 
ENDBRANCH  22  29
ENDBRANCH  18  27
ENDBRANCH  17  19
ENDBRANCH   1  17
TORSDOF 4
ENDMDL
