REMARK  Name = cpd274.pdb
REMARK  9 active torsions:
REMARK  status: ('A' for Active; 'I' for Inactive)
REMARK    1  A    between atoms: C_1  and  C_2
REMARK    2  A    between atoms: C_2  and  C_3
REMARK    3  A    between atoms: C_2  and  C_4
REMARK    4  A    between atoms: C_9  and  N_10
REMARK    5  A    between atoms: C_11  and  O_13
REMARK    6  A    between atoms: O_13  and  C_14
REMARK    7  A    between atoms: C_20  and  C_21
REMARK    8  A    between atoms: N_24  and  C_25
REMARK    9  A    between atoms: N_28  and  C_29
REMARK                            x       y       z     vdW  Elec       q    Type
REMARK                         _______ _______ _______ _____ _____    ______ ____
ROOT
ATOM      1  C   UNL A   1       3.588   1.718   1.355  0.00  0.00    +0.134 A 
ATOM      2  C   UNL A   1       3.715   0.328   1.387  0.00  0.00    -0.017 A 
ATOM      3  C   UNL A   1       2.702  -0.463   0.850  0.00  0.00    -0.037 A 
ATOM      4  C   UNL A   1       1.537   0.138   0.389  0.00  0.00    +0.032 A 
ATOM      5  C   UNL A   1       1.373   1.514   0.493  0.00  0.00    -0.017 A 
ATOM      6  C   UNL A   1       2.403   2.331   0.947  0.00  0.00    -0.014 A 
ATOM      7  C   UNL A   1       0.000   1.878   0.000  0.00  0.00    +0.002 C 
ATOM      8  C   UNL A   1      -0.700   2.841   0.967  0.00  0.00    -0.055 C 
ATOM      9  C   UNL A   1       0.076   2.394  -1.421  0.00  0.00    -0.054 C 
ATOM     10  C   UNL A   1      -1.283   2.081  -1.949  0.00  0.00    -0.048 C 
ATOM     11  N   UNL A   1      -1.669   0.749  -1.360  0.00  0.00    +0.433 N 
ATOM     12  C   UNL A   1      -1.455  -0.322  -2.400  0.00  0.00    -0.060 C 
ATOM     13  O   UNL A   1      -3.023   0.791  -1.053  0.00  0.00    -0.289 OA
ATOM     14  C   UNL A   1      -0.813   0.470   0.000  0.00  0.00    +0.039 C 
ATOM     15  N   UNL A   1       0.453  -0.479  -0.260  0.00  0.00    -0.341 N 
ATOM     16  C   UNL A   1       0.305  -1.912   0.050  0.00  0.00    -0.001 C 
ENDROOT
BRANCH   1  17
ATOM     17  O   UNL A   1       4.652   2.563   1.766  0.00  0.00    -0.411 OA
BRANCH  17  19
ATOM     18  N   UNL A   1       6.362   1.441   0.604  0.00  0.00    -0.251 N 
ATOM     19  C   UNL A   1       6.044   2.343   1.601  0.00  0.00    +0.410 C 
ATOM     20  O   UNL A   1       6.826   2.956   2.317  0.00  0.00    -0.226 OA
ATOM     21  H   UNL A   1       5.615   1.167   0.024  0.00  0.00    +0.000 HD
BRANCH  18  27
ATOM     22  C   UNL A   1       7.700  -0.216  -0.624  0.00  0.00    -0.024 A 
ATOM     23  C   UNL A   1       8.962  -0.812  -0.849  0.00  0.00    -0.057 A 
ATOM     24  C   UNL A   1      10.113  -0.356  -0.211  0.00  0.00    -0.061 A 
ATOM     25  C   UNL A   1      10.027   0.702   0.678  0.00  0.00    -0.060 A 
ATOM     26  C   UNL A   1       8.790   1.299   0.936  0.00  0.00    -0.040 A 
ATOM     27  C   UNL A   1       7.617   0.857   0.304  0.00  0.00    +0.040 A 
BRANCH  22  29
ATOM     28  C   UNL A   1       6.027  -2.087  -0.586  0.00  0.00    -0.059 C 
ATOM     29  C   UNL A   1       6.484  -0.826  -1.325  0.00  0.00    -0.020 C 
ATOM     30  C   UNL A   1       6.716  -1.139  -2.810  0.00  0.00    -0.059 C 
ENDBRANCH  22  29
ENDBRANCH  18  27
ENDBRANCH  17  19
ENDBRANCH   1  17
TORSDOF 4
