@<TRIPOS>MOLECULE
*****
 28 32 0 0 0
SMALL
GASTEIGER

@<TRIPOS>ATOM
      1 CL          6.9845   -2.1701    0.0000 Cl      1  UNL1       -0.0823
      2 C           6.0365   -2.3716    0.0000 C.ar    1  UNL1        0.0576
      3 C           5.7370   -3.2933    0.0000 C.ar    1  UNL1        0.0114
      4 C           4.7891   -3.4948    0.0000 C.ar    1  UNL1        0.0008
      5 C           4.1406   -2.7746    0.0000 C.ar    1  UNL1        0.0025
      6 C           4.4401   -1.8529    0.0000 C.ar    1  UNL1        0.0564
      7 C           3.7916   -1.1327    0.0000 C.3     1  UNL1        0.3502
      8 N           2.8436   -1.3342    0.0000 N.ar    1  UNL1       -0.1555
      9 C           2.5442   -2.2559    0.0000 C.ar    1  UNL1        0.2901
     10 C           1.5962   -2.4574    0.0000 C.ar    1  UNL1        0.0735
     11 C           0.9477   -1.7372    0.0000 C.ar    1  UNL1        0.0126
     12 C          -0.0002   -1.9387    0.0000 C.3     1  UNL1        0.1328
     13 N          -0.8395   -1.4541    0.0000 N.ar    1  UNL1       -0.3268
     14 C          -0.8396   -0.4850    0.0000 C.ar    1  UNL1        0.0334
     15 C          -1.6794   -0.0001    0.0000 C.ar    1  UNL1       -0.0091
     16 C          -2.5189   -1.4542    0.0000 C.ar    1  UNL1        0.0129
     17 C          -3.3585   -1.9391    0.0000 C.ar    1  UNL1        0.0012
     18 C          -3.3584   -2.9083    0.0000 C.ar    1  UNL1        0.0001
     19 C          -2.5186   -3.3931    0.0000 C.ar    1  UNL1        0.0015
     20 C          -1.6793   -2.9086    0.0000 C.ar    1  UNL1        0.0172
     21 C          -1.6791   -1.9390    0.0000 C.ar    1  UNL1        0.0596
     22 C          -1.6792    0.9695    0.0000 C.3     1  UNL1        0.0275
     23 C          -0.8399    1.4540    0.0000 C.3     1  UNL1        0.0051
     24 C          -0.0001    0.9691    0.0000 C.3     1  UNL1        0.0066
     25 C           0.0000   -0.0000    0.0000 C.3     1  UNL1        0.0435
     26 C           1.2472   -0.8155    0.0000 C.ar    1  UNL1        0.0735
     27 C           1.8570   -1.6548    0.0000 C.ar    1  UNL1        0.2901
     28 C           5.4267   -1.5323    0.0000 C.ar    1  UNL1        0.0139
@<TRIPOS>UNITY_ATOM_ATTR
8 1
charge 1
@<TRIPOS>BOND
     1     1     2    1
     2     2     3   ar
     3     3     4   ar
     4     4     5   ar
     5     5     6   ar
     6     6     7    1
     7     7     8    1
     8     8     9   ar
     9     9    10   ar
    10    10    11   ar
    11    11    12    1
    12    12    13    1
    13    13    14   ar
    14    14    15   ar
    15    15    16   ar
    16    16    17   ar
    17    17    18   ar
    18    18    19   ar
    19    19    20   ar
    20    20    21   ar
    21    16    21   ar
    22    13    21   ar
    23    15    22    1
    24    22    23    1
    25    23    24    1
    26    24    25    1
    27    14    25    1
    28    11    26   ar
    29    26    27   ar
    30     8    27   ar
    31     6    28   ar
    32     2    28   ar
