REMARK  Name = cpd348.pdb
REMARK  4 active torsions:
REMARK  status: ('A' for Active; 'I' for Inactive)
REMARK    1  A    between atoms: C_6  and  C_7
REMARK    2  A    between atoms: C_7  and  N_8
REMARK    3  A    between atoms: C_11  and  C_12
REMARK    4  A    between atoms: C_12  and  N_13
REMARK                            x       y       z     vdW  Elec       q    Type
REMARK                         _______ _______ _______ _____ _____    ______ ____
ROOT
ATOM      1  N   UNL A   1       3.680  -1.413   0.402  0.00  0.00    -0.349 N 
ATOM      2  C   UNL A   1       2.669  -2.266   0.684  0.00  0.00    +0.005 A 
ATOM      3  C   UNL A   1       1.493  -2.242  -0.058  0.00  0.00    -0.041 A 
ATOM      4  C   UNL A   1       1.338  -1.320  -1.098  0.00  0.00    -0.025 A 
ATOM      5  C   UNL A   1       2.404  -0.462  -1.375  0.00  0.00    -0.041 A 
ATOM      6  C   UNL A   1       3.564  -0.521  -0.607  0.00  0.00    +0.005 A 
ENDROOT
BRANCH   1   7
ATOM      7  C   UNL A   1       4.918  -1.454   1.220  0.00  0.00    +0.048 C 
BRANCH   7  13
ATOM      8 CL   UNL A   1       7.810  -4.093  -2.235  0.00  0.00    -0.084 Cl
ATOM      9  C   UNL A   1       7.096  -3.944  -0.678  0.00  0.00    +0.041 A 
ATOM     10  C   UNL A   1       7.267  -4.951   0.266  0.00  0.00    -0.043 A 
ATOM     11  C   UNL A   1       6.684  -4.821   1.526  0.00  0.00    -0.060 A 
ATOM     12  C   UNL A   1       5.928  -3.689   1.837  0.00  0.00    -0.057 A 
ATOM     13  C   UNL A   1       5.744  -2.670   0.889  0.00  0.00    -0.026 A 
ATOM     14  C   UNL A   1       6.343  -2.807  -0.374  0.00  0.00    -0.039 A 
ENDBRANCH   7  13
ENDBRANCH   1   7
BRANCH   4  15
ATOM     15  C   UNL A   1       0.063  -1.257  -1.918  0.00  0.00    +0.049 C 
BRANCH  15  16
ATOM     16  N   UNL A   1      -1.113  -1.071  -1.074  0.00  0.00    -0.339 N 
ATOM     17  C   UNL A   1      -1.540   0.129  -0.557  0.00  0.00    +0.023 A 
ATOM     18  C   UNL A   1      -2.667  -0.108   0.204  0.00  0.00    -0.019 A 
ATOM     19  C   UNL A   1      -2.944  -1.500   0.147  0.00  0.00    +0.003 A 
ATOM     20  C   UNL A   1      -3.944  -2.317   0.711  0.00  0.00    -0.052 A 
ATOM     21  C   UNL A   1      -3.957  -3.687   0.435  0.00  0.00    -0.061 A 
ATOM     22  C   UNL A   1      -2.993  -4.248  -0.395  0.00  0.00    -0.060 A 
ATOM     23  C   UNL A   1      -1.988  -3.460  -0.966  0.00  0.00    -0.038 A 
ATOM     24  C   UNL A   1      -1.975  -2.083  -0.677  0.00  0.00    +0.050 A 
ATOM     25  C   UNL A   1      -3.402   0.975   0.924  0.00  0.00    -0.025 C 
ATOM     26  C   UNL A   1      -3.022   2.362   0.377  0.00  0.00    -0.049 C 
ATOM     27  C   UNL A   1      -1.503   2.504   0.184  0.00  0.00    -0.047 C 
ATOM     28  C   UNL A   1      -0.943   1.474  -0.813  0.00  0.00    -0.012 C 
ENDBRANCH  15  16
ENDBRANCH   4  15
TORSDOF 4
