MODEL 1
REMARK VINA RESULT:    -7.864      0.000      0.000
REMARK INTER + INTRA:         -10.503
REMARK INTER:                  -9.702
REMARK INTRA:                  -0.800
REMARK UNBOUND:                -0.800
REMARK  Name = cpd348.pdb
REMARK  4 active torsions:
REMARK  status: ('A' for Active; 'I' for Inactive)
REMARK    1  A    between atoms: C_6  and  C_7
REMARK    2  A    between atoms: C_7  and  N_8
REMARK    3  A    between atoms: C_11  and  C_12
REMARK    4  A    between atoms: C_12  and  N_13
REMARK                            x       y       z     vdW  Elec       q    Type
REMARK                         _______ _______ _______ _____ _____    ______ ____
ROOT
ATOM      1  N   UNL A   1      37.015 -37.636 -29.472  0.00  0.00    -0.349 N 
ATOM      2  C   UNL A   1      36.097 -37.857 -30.440  0.00  0.00    +0.005 A 
ATOM      3  C   UNL A   1      34.773 -37.474 -30.262  0.00  0.00    -0.041 A 
ATOM      4  C   UNL A   1      34.372 -36.867 -29.067  0.00  0.00    -0.025 A 
ATOM      5  C   UNL A   1      35.345 -36.638 -28.092  0.00  0.00    -0.041 A 
ATOM      6  C   UNL A   1      36.660 -37.038 -28.313  0.00  0.00    +0.005 A 
ENDROOT
BRANCH   1   7
ATOM      7  C   UNL A   1      38.419 -38.069 -29.686  0.00  0.00    +0.048 C 
BRANCH   7  13
ATOM      8 CL   UNL A   1      43.044 -36.193 -31.221  0.00  0.00    -0.084 Cl
ATOM      9  C   UNL A   1      41.329 -36.088 -31.154  0.00  0.00    +0.041 A 
ATOM     10  C   UNL A   1      40.672 -35.020 -31.756  0.00  0.00    -0.043 A 
ATOM     11  C   UNL A   1      39.281 -34.944 -31.696  0.00  0.00    -0.060 A 
ATOM     12  C   UNL A   1      38.552 -35.931 -31.031  0.00  0.00    -0.057 A 
ATOM     13  C   UNL A   1      39.206 -37.010 -30.414  0.00  0.00    -0.026 A 
ATOM     14  C   UNL A   1      40.606 -37.081 -30.488  0.00  0.00    -0.039 A 
ENDBRANCH   7  13
ENDBRANCH   1   7
BRANCH   4  15
ATOM     15  C   UNL A   1      32.932 -36.448 -28.835  0.00  0.00    +0.049 C 
BRANCH  15  16
ATOM     16  N   UNL A   1      32.480 -35.490 -29.838  0.00  0.00    -0.339 N 
ATOM     17  C   UNL A   1      31.502 -35.721 -30.776  0.00  0.00    +0.023 A 
ATOM     18  C   UNL A   1      31.376 -34.588 -31.554  0.00  0.00    -0.019 A 
ATOM     19  C   UNL A   1      32.305 -33.627 -31.073  0.00  0.00    +0.003 A 
ATOM     20  C   UNL A   1      32.630 -32.311 -31.458  0.00  0.00    -0.052 A 
ATOM     21  C   UNL A   1      33.600 -31.600 -30.746  0.00  0.00    -0.061 A 
ATOM     22  C   UNL A   1      34.243 -32.181 -29.659  0.00  0.00    -0.060 A 
ATOM     23  C   UNL A   1      33.941 -33.487 -29.257  0.00  0.00    -0.038 A 
ATOM     24  C   UNL A   1      32.970 -34.200 -29.984  0.00  0.00    +0.050 A 
ATOM     25  C   UNL A   1      30.403 -34.483 -32.683  0.00  0.00    -0.025 C 
ATOM     26  C   UNL A   1      29.319 -35.571 -32.584  0.00  0.00    -0.049 C 
ATOM     27  C   UNL A   1      29.919 -36.947 -32.254  0.00  0.00    -0.047 C 
ATOM     28  C   UNL A   1      30.664 -36.951 -30.907  0.00  0.00    -0.012 C 
ENDBRANCH  15  16
ENDBRANCH   4  15
TORSDOF 4
ENDMDL
MODEL 2
REMARK VINA RESULT:    -7.771     17.034     20.694
REMARK INTER + INTRA:         -10.389
REMARK INTER:                  -9.308
REMARK INTRA:                  -1.081
REMARK UNBOUND:                -0.800
REMARK  Name = cpd348.pdb
REMARK  4 active torsions:
REMARK  status: ('A' for Active; 'I' for Inactive)
REMARK    1  A    between atoms: C_6  and  C_7
REMARK    2  A    between atoms: C_7  and  N_8
REMARK    3  A    between atoms: C_11  and  C_12
REMARK    4  A    between atoms: C_12  and  N_13
REMARK                            x       y       z     vdW  Elec       q    Type
REMARK                         _______ _______ _______ _____ _____    ______ ____
ROOT
ATOM      1  N   UNL A   1      42.923 -19.599 -34.782  0.00  0.00    -0.349 N 
ATOM      2  C   UNL A   1      44.034 -19.358 -34.051  0.00  0.00    +0.005 A 
ATOM      3  C   UNL A   1      45.298 -19.508 -34.611  0.00  0.00    -0.041 A 
ATOM      4  C   UNL A   1      45.433 -19.927 -35.938  0.00  0.00    -0.025 A 
ATOM      5  C   UNL A   1      44.267 -20.155 -36.673  0.00  0.00    -0.041 A 
ATOM      6  C   UNL A   1      43.022 -19.991 -36.072  0.00  0.00    +0.005 A 
ENDROOT
BRANCH   1   7
ATOM      7  C   UNL A   1      41.588 -19.442 -34.153  0.00  0.00    +0.048 C 
BRANCH   7  13
ATOM      8 CL   UNL A   1      41.517 -23.955 -31.528  0.00  0.00    -0.084 Cl
ATOM      9  C   UNL A   1      40.865 -22.902 -32.720  0.00  0.00    +0.041 A 
ATOM     10  C   UNL A   1      39.759 -23.295 -33.467  0.00  0.00    -0.043 A 
ATOM     11  C   UNL A   1      39.237 -22.434 -34.431  0.00  0.00    -0.060 A 
ATOM     12  C   UNL A   1      39.825 -21.186 -34.651  0.00  0.00    -0.057 A 
ATOM     13  C   UNL A   1      40.945 -20.783 -33.908  0.00  0.00    -0.026 A 
ATOM     14  C   UNL A   1      41.457 -21.655 -32.932  0.00  0.00    -0.039 A 
ENDBRANCH   7  13
ENDBRANCH   1   7
BRANCH   4  15
ATOM     15  C   UNL A   1      46.797 -20.115 -36.576  0.00  0.00    +0.049 C 
BRANCH  15  16
ATOM     16  N   UNL A   1      46.835 -19.585 -37.935  0.00  0.00    -0.339 N 
ATOM     17  C   UNL A   1      46.957 -18.256 -38.268  0.00  0.00    +0.023 A 
ATOM     18  C   UNL A   1      46.930 -18.155 -39.644  0.00  0.00    -0.019 A 
ATOM     19  C   UNL A   1      46.793 -19.465 -40.174  0.00  0.00    +0.003 A 
ATOM     20  C   UNL A   1      46.710 -19.983 -41.482  0.00  0.00    -0.052 A 
ATOM     21  C   UNL A   1      46.602 -21.363 -41.676  0.00  0.00    -0.061 A 
ATOM     22  C   UNL A   1      46.581 -22.228 -40.588  0.00  0.00    -0.060 A 
ATOM     23  C   UNL A   1      46.660 -21.741 -39.279  0.00  0.00    -0.038 A 
ATOM     24  C   UNL A   1      46.759 -20.350 -39.090  0.00  0.00    +0.050 A 
ATOM     25  C   UNL A   1      47.037 -16.849 -40.363  0.00  0.00    -0.025 C 
ATOM     26  C   UNL A   1      47.593 -15.751 -39.440  0.00  0.00    -0.049 C 
ATOM     27  C   UNL A   1      46.928 -15.778 -38.054  0.00  0.00    -0.047 C 
ATOM     28  C   UNL A   1      47.151 -17.114 -37.325  0.00  0.00    -0.012 C 
ENDBRANCH  15  16
ENDBRANCH   4  15
TORSDOF 4
ENDMDL
MODEL 3
REMARK VINA RESULT:    -7.734      4.067      6.811
REMARK INTER + INTRA:         -10.343
REMARK INTER:                  -9.155
REMARK INTRA:                  -1.188
REMARK UNBOUND:                -0.800
REMARK  Name = cpd348.pdb
REMARK  4 active torsions:
REMARK  status: ('A' for Active; 'I' for Inactive)
REMARK    1  A    between atoms: C_6  and  C_7
REMARK    2  A    between atoms: C_7  and  N_8
REMARK    3  A    between atoms: C_11  and  C_12
REMARK    4  A    between atoms: C_12  and  N_13
REMARK                            x       y       z     vdW  Elec       q    Type
REMARK                         _______ _______ _______ _____ _____    ______ ____
ROOT
ATOM      1  N   UNL A   1      33.842 -40.900 -30.655  0.00  0.00    -0.349 N 
ATOM      2  C   UNL A   1      33.192 -40.010 -29.872  0.00  0.00    +0.005 A 
ATOM      3  C   UNL A   1      33.892 -39.011 -29.202  0.00  0.00    -0.041 A 
ATOM      4  C   UNL A   1      35.282 -38.928 -29.321  0.00  0.00    -0.025 A 
ATOM      5  C   UNL A   1      35.924 -39.852 -30.147  0.00  0.00    -0.041 A 
ATOM      6  C   UNL A   1      35.185 -40.835 -30.800  0.00  0.00    +0.005 A 
ENDROOT
BRANCH   1   7
ATOM      7  C   UNL A   1      33.070 -41.963 -31.346  0.00  0.00    +0.048 C 
BRANCH   7  13
ATOM      8 CL   UNL A   1      31.467 -39.060 -35.379  0.00  0.00    -0.084 Cl
ATOM      9  C   UNL A   1      32.318 -40.414 -34.749  0.00  0.00    +0.041 A 
ATOM     10  C   UNL A   1      32.959 -41.297 -35.612  0.00  0.00    -0.043 A 
ATOM     11  C   UNL A   1      33.646 -42.393 -35.092  0.00  0.00    -0.060 A 
ATOM     12  C   UNL A   1      33.687 -42.607 -33.713  0.00  0.00    -0.057 A 
ATOM     13  C   UNL A   1      33.037 -41.726 -32.834  0.00  0.00    -0.026 A 
ATOM     14  C   UNL A   1      32.355 -40.620 -33.368  0.00  0.00    -0.039 A 
ENDBRANCH   7  13
ENDBRANCH   1   7
BRANCH   4  15
ATOM     15  C   UNL A   1      36.078 -37.860 -28.593  0.00  0.00    +0.049 C 
BRANCH  15  16
ATOM     16  N   UNL A   1      36.263 -36.670 -29.418  0.00  0.00    -0.339 N 
ATOM     17  C   UNL A   1      37.342 -36.428 -30.235  0.00  0.00    +0.023 A 
ATOM     18  C   UNL A   1      37.164 -35.194 -30.827  0.00  0.00    -0.019 A 
ATOM     19  C   UNL A   1      35.931 -34.663 -30.361  0.00  0.00    +0.003 A 
ATOM     20  C   UNL A   1      35.233 -33.465 -30.609  0.00  0.00    -0.052 A 
ATOM     21  C   UNL A   1      33.994 -33.246 -29.999  0.00  0.00    -0.061 A 
ATOM     22  C   UNL A   1      33.446 -34.204 -29.153  0.00  0.00    -0.060 A 
ATOM     23  C   UNL A   1      34.120 -35.401 -28.889  0.00  0.00    -0.038 A 
ATOM     24  C   UNL A   1      35.370 -35.611 -29.499  0.00  0.00    +0.050 A 
ATOM     25  C   UNL A   1      38.150 -34.602 -31.780  0.00  0.00    -0.025 C 
ATOM     26  C   UNL A   1      39.109 -35.675 -32.324  0.00  0.00    -0.049 C 
ATOM     27  C   UNL A   1      39.625 -36.599 -31.209  0.00  0.00    -0.047 C 
ATOM     28  C   UNL A   1      38.485 -37.352 -30.501  0.00  0.00    -0.012 C 
ENDBRANCH  15  16
ENDBRANCH   4  15
TORSDOF 4
ENDMDL
MODEL 4
REMARK VINA RESULT:    -7.726     16.551     19.707
REMARK INTER + INTRA:         -10.333
REMARK INTER:                  -9.334
REMARK INTRA:                  -0.999
REMARK UNBOUND:                -0.800
REMARK  Name = cpd348.pdb
REMARK  4 active torsions:
REMARK  status: ('A' for Active; 'I' for Inactive)
REMARK    1  A    between atoms: C_6  and  C_7
REMARK    2  A    between atoms: C_7  and  N_8
REMARK    3  A    between atoms: C_11  and  C_12
REMARK    4  A    between atoms: C_12  and  N_13
REMARK                            x       y       z     vdW  Elec       q    Type
REMARK                         _______ _______ _______ _____ _____    ______ ____
ROOT
ATOM      1  N   UNL A   1      41.898 -20.056 -35.198  0.00  0.00    -0.349 N 
ATOM      2  C   UNL A   1      41.926 -20.781 -36.340  0.00  0.00    +0.005 A 
ATOM      3  C   UNL A   1      43.068 -20.813 -37.133  0.00  0.00    -0.041 A 
ATOM      4  C   UNL A   1      44.199 -20.078 -36.763  0.00  0.00    -0.025 A 
ATOM      5  C   UNL A   1      44.146 -19.351 -35.572  0.00  0.00    -0.041 A 
ATOM      6  C   UNL A   1      42.982 -19.348 -34.808  0.00  0.00    +0.005 A 
ENDROOT
BRANCH   1   7
ATOM      7  C   UNL A   1      40.660 -20.032 -34.380  0.00  0.00    +0.048 C 
BRANCH   7  13
ATOM      8 CL   UNL A   1      41.949 -23.986 -31.223  0.00  0.00    -0.084 Cl
ATOM      9  C   UNL A   1      40.900 -23.273 -32.383  0.00  0.00    +0.041 A 
ATOM     10  C   UNL A   1      39.777 -23.964 -32.825  0.00  0.00    -0.043 A 
ATOM     11  C   UNL A   1      38.932 -23.377 -33.766  0.00  0.00    -0.060 A 
ATOM     12  C   UNL A   1      39.214 -22.104 -34.266  0.00  0.00    -0.057 A 
ATOM     13  C   UNL A   1      40.349 -21.401 -33.831  0.00  0.00    -0.026 A 
ATOM     14  C   UNL A   1      41.188 -21.998 -32.877  0.00  0.00    -0.039 A 
ENDBRANCH   7  13
ENDBRANCH   1   7
BRANCH   4  15
ATOM     15  C   UNL A   1      45.457 -20.079 -37.612  0.00  0.00    +0.049 C 
BRANCH  15  16
ATOM     16  N   UNL A   1      45.169 -19.742 -39.002  0.00  0.00    -0.339 N 
ATOM     17  C   UNL A   1      45.370 -20.572 -40.080  0.00  0.00    +0.023 A 
ATOM     18  C   UNL A   1      45.002 -19.890 -41.222  0.00  0.00    -0.019 A 
ATOM     19  C   UNL A   1      44.555 -18.599 -40.831  0.00  0.00    +0.003 A 
ATOM     20  C   UNL A   1      44.066 -17.483 -41.539  0.00  0.00    -0.052 A 
ATOM     21  C   UNL A   1      43.673 -16.338 -40.841  0.00  0.00    -0.061 A 
ATOM     22  C   UNL A   1      43.758 -16.294 -39.454  0.00  0.00    -0.060 A 
ATOM     23  C   UNL A   1      44.241 -17.387 -38.727  0.00  0.00    -0.038 A 
ATOM     24  C   UNL A   1      44.644 -18.534 -39.436  0.00  0.00    +0.050 A 
ATOM     25  C   UNL A   1      45.092 -20.487 -42.588  0.00  0.00    -0.025 C 
ATOM     26  C   UNL A   1      45.218 -22.019 -42.517  0.00  0.00    -0.049 C 
ATOM     27  C   UNL A   1      46.235 -22.460 -41.451  0.00  0.00    -0.047 C 
ATOM     28  C   UNL A   1      45.842 -21.989 -40.040  0.00  0.00    -0.012 C 
ENDBRANCH  15  16
ENDBRANCH   4  15
TORSDOF 4
ENDMDL
MODEL 5
REMARK VINA RESULT:    -7.650      3.685      6.742
REMARK INTER + INTRA:         -10.239
REMARK INTER:                  -9.165
REMARK INTRA:                  -1.073
REMARK UNBOUND:                -0.800
REMARK  Name = cpd348.pdb
REMARK  4 active torsions:
REMARK  status: ('A' for Active; 'I' for Inactive)
REMARK    1  A    between atoms: C_6  and  C_7
REMARK    2  A    between atoms: C_7  and  N_8
REMARK    3  A    between atoms: C_11  and  C_12
REMARK    4  A    between atoms: C_12  and  N_13
REMARK                            x       y       z     vdW  Elec       q    Type
REMARK                         _______ _______ _______ _____ _____    ______ ____
ROOT
ATOM      1  N   UNL A   1      33.822 -40.442 -31.416  0.00  0.00    -0.349 N 
ATOM      2  C   UNL A   1      33.269 -39.826 -30.346  0.00  0.00    +0.005 A 
ATOM      3  C   UNL A   1      34.009 -38.927 -29.585  0.00  0.00    -0.041 A 
ATOM      4  C   UNL A   1      35.343 -38.664 -29.910  0.00  0.00    -0.025 A 
ATOM      5  C   UNL A   1      35.882 -39.304 -31.027  0.00  0.00    -0.041 A 
ATOM      6  C   UNL A   1      35.105 -40.196 -31.762  0.00  0.00    +0.005 A 
ENDROOT
BRANCH   1   7
ATOM      7  C   UNL A   1      33.011 -41.406 -32.201  0.00  0.00    +0.048 C 
BRANCH   7  13
ATOM      8 CL   UNL A   1      31.509 -37.122 -34.782  0.00  0.00    -0.084 Cl
ATOM      9  C   UNL A   1      31.794 -38.817 -34.724  0.00  0.00    +0.041 A 
ATOM     10  C   UNL A   1      31.542 -39.604 -35.842  0.00  0.00    -0.043 A 
ATOM     11  C   UNL A   1      31.776 -40.978 -35.785  0.00  0.00    -0.060 A 
ATOM     12  C   UNL A   1      32.255 -41.560 -34.610  0.00  0.00    -0.057 A 
ATOM     13  C   UNL A   1      32.506 -40.775 -33.473  0.00  0.00    -0.026 A 
ATOM     14  C   UNL A   1      32.275 -39.392 -33.545  0.00  0.00    -0.039 A 
ENDBRANCH   7  13
ENDBRANCH   1   7
BRANCH   4  15
ATOM     15  C   UNL A   1      36.183 -37.701 -29.092  0.00  0.00    +0.049 C 
BRANCH  15  16
ATOM     16  N   UNL A   1      36.432 -36.456 -29.813  0.00  0.00    -0.339 N 
ATOM     17  C   UNL A   1      35.582 -35.377 -29.856  0.00  0.00    +0.023 A 
ATOM     18  C   UNL A   1      36.157 -34.409 -30.654  0.00  0.00    -0.019 A 
ATOM     19  C   UNL A   1      37.406 -34.908 -31.111  0.00  0.00    +0.003 A 
ATOM     20  C   UNL A   1      38.420 -34.385 -31.937  0.00  0.00    -0.052 A 
ATOM     21  C   UNL A   1      39.572 -35.137 -32.181  0.00  0.00    -0.061 A 
ATOM     22  C   UNL A   1      39.726 -36.396 -31.612  0.00  0.00    -0.060 A 
ATOM     23  C   UNL A   1      38.734 -36.940 -30.789  0.00  0.00    -0.038 A 
ATOM     24  C   UNL A   1      37.572 -36.182 -30.554  0.00  0.00    +0.050 A 
ATOM     25  C   UNL A   1      35.506 -33.093 -30.929  0.00  0.00    -0.025 C 
ATOM     26  C   UNL A   1      34.389 -32.803 -29.912  0.00  0.00    -0.049 C 
ATOM     27  C   UNL A   1      33.496 -34.032 -29.676  0.00  0.00    -0.047 C 
ATOM     28  C   UNL A   1      34.288 -35.231 -29.124  0.00  0.00    -0.012 C 
ENDBRANCH  15  16
ENDBRANCH   4  15
TORSDOF 4
ENDMDL
MODEL 6
REMARK VINA RESULT:    -7.646      1.145      3.096
REMARK INTER + INTRA:         -10.234
REMARK INTER:                  -9.393
REMARK INTRA:                  -0.840
REMARK UNBOUND:                -0.800
REMARK  Name = cpd348.pdb
REMARK  4 active torsions:
REMARK  status: ('A' for Active; 'I' for Inactive)
REMARK    1  A    between atoms: C_6  and  C_7
REMARK    2  A    between atoms: C_7  and  N_8
REMARK    3  A    between atoms: C_11  and  C_12
REMARK    4  A    between atoms: C_12  and  N_13
REMARK                            x       y       z     vdW  Elec       q    Type
REMARK                         _______ _______ _______ _____ _____    ______ ____
ROOT
ATOM      1  N   UNL A   1      37.341 -37.857 -29.200  0.00  0.00    -0.349 N 
ATOM      2  C   UNL A   1      36.578 -38.474 -30.130  0.00  0.00    +0.005 A 
ATOM      3  C   UNL A   1      35.203 -38.270 -30.169  0.00  0.00    -0.041 A 
ATOM      4  C   UNL A   1      34.591 -37.431 -29.232  0.00  0.00    -0.025 A 
ATOM      5  C   UNL A   1      35.406 -36.797 -28.292  0.00  0.00    -0.041 A 
ATOM      6  C   UNL A   1      36.779 -37.030 -28.290  0.00  0.00    +0.005 A 
ENDROOT
BRANCH   1   7
ATOM      7  C   UNL A   1      38.804 -38.105 -29.175  0.00  0.00    +0.048 C 
BRANCH   7  13
ATOM      8 CL   UNL A   1      43.317 -36.278 -31.061  0.00  0.00    -0.084 Cl
ATOM      9  C   UNL A   1      41.600 -36.247 -30.985  0.00  0.00    +0.041 A 
ATOM     10  C   UNL A   1      40.886 -35.322 -31.740  0.00  0.00    -0.043 A 
ATOM     11  C   UNL A   1      39.494 -35.305 -31.672  0.00  0.00    -0.060 A 
ATOM     12  C   UNL A   1      38.819 -36.207 -30.846  0.00  0.00    -0.057 A 
ATOM     13  C   UNL A   1      39.531 -37.140 -30.076  0.00  0.00    -0.026 A 
ATOM     14  C   UNL A   1      40.933 -37.155 -30.159  0.00  0.00    -0.039 A 
ENDBRANCH   7  13
ENDBRANCH   1   7
BRANCH   4  15
ATOM     15  C   UNL A   1      33.092 -37.197 -29.236  0.00  0.00    +0.049 C 
BRANCH  15  16
ATOM     16  N   UNL A   1      32.678 -36.376 -30.370  0.00  0.00    -0.339 N 
ATOM     17  C   UNL A   1      32.680 -35.002 -30.400  0.00  0.00    +0.023 A 
ATOM     18  C   UNL A   1      32.200 -34.599 -31.630  0.00  0.00    -0.019 A 
ATOM     19  C   UNL A   1      31.898 -35.766 -32.381  0.00  0.00    +0.003 A 
ATOM     20  C   UNL A   1      31.388 -35.984 -33.677  0.00  0.00    -0.052 A 
ATOM     21  C   UNL A   1      31.226 -37.290 -34.147  0.00  0.00    -0.061 A 
ATOM     22  C   UNL A   1      31.567 -38.375 -33.347  0.00  0.00    -0.060 A 
ATOM     23  C   UNL A   1      32.073 -38.186 -32.056  0.00  0.00    -0.038 A 
ATOM     24  C   UNL A   1      32.226 -36.869 -31.585  0.00  0.00    +0.050 A 
ATOM     25  C   UNL A   1      32.060 -33.162 -32.015  0.00  0.00    -0.025 C 
ATOM     26  C   UNL A   1      32.888 -32.256 -31.087  0.00  0.00    -0.049 C 
ATOM     27  C   UNL A   1      32.718 -32.643 -29.609  0.00  0.00    -0.047 C 
ATOM     28  C   UNL A   1      33.173 -34.086 -29.328  0.00  0.00    -0.012 C 
ENDBRANCH  15  16
ENDBRANCH   4  15
TORSDOF 4
ENDMDL
MODEL 7
REMARK VINA RESULT:    -7.535      1.847      2.437
REMARK INTER + INTRA:         -10.098
REMARK INTER:                  -9.444
REMARK INTRA:                  -0.653
REMARK UNBOUND:                -0.800
REMARK  Name = cpd348.pdb
REMARK  4 active torsions:
REMARK  status: ('A' for Active; 'I' for Inactive)
REMARK    1  A    between atoms: C_6  and  C_7
REMARK    2  A    between atoms: C_7  and  N_8
REMARK    3  A    between atoms: C_11  and  C_12
REMARK    4  A    between atoms: C_12  and  N_13
REMARK                            x       y       z     vdW  Elec       q    Type
REMARK                         _______ _______ _______ _____ _____    ______ ____
ROOT
ATOM      1  N   UNL A   1      36.846 -36.650 -30.367  0.00  0.00    -0.349 N 
ATOM      2  C   UNL A   1      35.951 -37.547 -30.841  0.00  0.00    +0.005 A 
ATOM      3  C   UNL A   1      34.697 -37.135 -31.278  0.00  0.00    -0.041 A 
ATOM      4  C   UNL A   1      34.341 -35.784 -31.217  0.00  0.00    -0.025 A 
ATOM      5  C   UNL A   1      35.290 -34.879 -30.737  0.00  0.00    -0.041 A 
ATOM      6  C   UNL A   1      36.535 -35.335 -30.310  0.00  0.00    +0.005 A 
ENDROOT
BRANCH   1   7
ATOM      7  C   UNL A   1      38.172 -37.121 -29.896  0.00  0.00    +0.048 C 
BRANCH   7  13
ATOM      8 CL   UNL A   1      43.129 -37.640 -31.453  0.00  0.00    -0.084 Cl
ATOM      9  C   UNL A   1      41.538 -37.032 -31.687  0.00  0.00    +0.041 A 
ATOM     10  C   UNL A   1      41.246 -36.258 -32.805  0.00  0.00    -0.043 A 
ATOM     11  C   UNL A   1      39.953 -35.769 -32.986  0.00  0.00    -0.060 A 
ATOM     12  C   UNL A   1      38.957 -36.051 -32.049  0.00  0.00    -0.057 A 
ATOM     13  C   UNL A   1      39.243 -36.827 -30.914  0.00  0.00    -0.026 A 
ATOM     14  C   UNL A   1      40.547 -37.321 -30.746  0.00  0.00    -0.039 A 
ENDBRANCH   7  13
ENDBRANCH   1   7
BRANCH   4  15
ATOM     15  C   UNL A   1      32.976 -35.303 -31.672  0.00  0.00    +0.049 C 
BRANCH  15  16
ATOM     16  N   UNL A   1      32.219 -34.709 -30.574  0.00  0.00    -0.339 N 
ATOM     17  C   UNL A   1      31.519 -35.409 -29.621  0.00  0.00    +0.023 A 
ATOM     18  C   UNL A   1      30.921 -34.499 -28.773  0.00  0.00    -0.019 A 
ATOM     19  C   UNL A   1      31.272 -33.196 -29.218  0.00  0.00    +0.003 A 
ATOM     20  C   UNL A   1      30.968 -31.898 -28.762  0.00  0.00    -0.052 A 
ATOM     21  C   UNL A   1      31.505 -30.789 -29.422  0.00  0.00    -0.061 A 
ATOM     22  C   UNL A   1      32.340 -30.958 -30.521  0.00  0.00    -0.060 A 
ATOM     23  C   UNL A   1      32.656 -32.236 -30.994  0.00  0.00    -0.038 A 
ATOM     24  C   UNL A   1      32.104 -33.348 -30.332  0.00  0.00    +0.050 A 
ATOM     25  C   UNL A   1      30.072 -34.907 -27.613  0.00  0.00    -0.025 C 
ATOM     26  C   UNL A   1      30.303 -36.384 -27.249  0.00  0.00    -0.049 C 
ATOM     27  C   UNL A   1      30.330 -37.283 -28.496  0.00  0.00    -0.047 C 
ATOM     28  C   UNL A   1      31.455 -36.894 -29.471  0.00  0.00    -0.012 C 
ENDBRANCH  15  16
ENDBRANCH   4  15
TORSDOF 4
ENDMDL
MODEL 8
REMARK VINA RESULT:    -7.509      4.179      6.734
REMARK INTER + INTRA:         -10.065
REMARK INTER:                  -8.806
REMARK INTRA:                  -1.259
REMARK UNBOUND:                -0.800
REMARK  Name = cpd348.pdb
REMARK  4 active torsions:
REMARK  status: ('A' for Active; 'I' for Inactive)
REMARK    1  A    between atoms: C_6  and  C_7
REMARK    2  A    between atoms: C_7  and  N_8
REMARK    3  A    between atoms: C_11  and  C_12
REMARK    4  A    between atoms: C_12  and  N_13
REMARK                            x       y       z     vdW  Elec       q    Type
REMARK                         _______ _______ _______ _____ _____    ______ ____
ROOT
ATOM      1  N   UNL A   1      33.751 -40.818 -29.704  0.00  0.00    -0.349 N 
ATOM      2  C   UNL A   1      34.980 -40.873 -29.141  0.00  0.00    +0.005 A 
ATOM      3  C   UNL A   1      35.542 -39.744 -28.556  0.00  0.00    -0.041 A 
ATOM      4  C   UNL A   1      34.846 -38.531 -28.559  0.00  0.00    -0.025 A 
ATOM      5  C   UNL A   1      33.574 -38.509 -29.135  0.00  0.00    -0.041 A 
ATOM      6  C   UNL A   1      33.049 -39.663 -29.708  0.00  0.00    +0.005 A 
ENDROOT
BRANCH   1   7
ATOM      7  C   UNL A   1      33.182 -42.037 -30.332  0.00  0.00    +0.048 C 
BRANCH   7  13
ATOM      8 CL   UNL A   1      30.186 -42.066 -34.608  0.00  0.00    -0.084 Cl
ATOM      9  C   UNL A   1      31.716 -41.872 -33.849  0.00  0.00    +0.041 A 
ATOM     10  C   UNL A   1      32.840 -41.578 -34.613  0.00  0.00    -0.043 A 
ATOM     11  C   UNL A   1      34.077 -41.423 -33.988  0.00  0.00    -0.060 A 
ATOM     12  C   UNL A   1      34.188 -41.567 -32.604  0.00  0.00    -0.057 A 
ATOM     13  C   UNL A   1      33.061 -41.870 -31.824  0.00  0.00    -0.026 A 
ATOM     14  C   UNL A   1      31.818 -42.015 -32.463  0.00  0.00    -0.039 A 
ENDBRANCH   7  13
ENDBRANCH   1   7
BRANCH   4  15
ATOM     15  C   UNL A   1      35.436 -37.276 -27.943  0.00  0.00    +0.049 C 
BRANCH  15  16
ATOM     16  N   UNL A   1      35.888 -36.335 -28.962  0.00  0.00    -0.339 N 
ATOM     17  C   UNL A   1      35.184 -35.240 -29.403  0.00  0.00    +0.023 A 
ATOM     18  C   UNL A   1      35.929 -34.616 -30.383  0.00  0.00    -0.019 A 
ATOM     19  C   UNL A   1      37.134 -35.350 -30.545  0.00  0.00    +0.003 A 
ATOM     20  C   UNL A   1      38.260 -35.200 -31.379  0.00  0.00    -0.052 A 
ATOM     21  C   UNL A   1      39.324 -36.101 -31.276  0.00  0.00    -0.061 A 
ATOM     22  C   UNL A   1      39.280 -37.141 -30.354  0.00  0.00    -0.060 A 
ATOM     23  C   UNL A   1      38.173 -37.314 -29.516  0.00  0.00    -0.038 A 
ATOM     24  C   UNL A   1      37.102 -36.409 -29.631  0.00  0.00    +0.050 A 
ATOM     25  C   UNL A   1      35.468 -33.385 -31.092  0.00  0.00    -0.025 C 
ATOM     26  C   UNL A   1      34.328 -32.695 -30.323  0.00  0.00    -0.049 C 
ATOM     27  C   UNL A   1      33.275 -33.704 -29.835  0.00  0.00    -0.047 C 
ATOM     28  C   UNL A   1      33.871 -34.754 -28.881  0.00  0.00    -0.012 C 
ENDBRANCH  15  16
ENDBRANCH   4  15
TORSDOF 4
ENDMDL
MODEL 9
REMARK VINA RESULT:    -7.480     17.531     20.927
REMARK INTER + INTRA:         -10.029
REMARK INTER:                  -9.039
REMARK INTRA:                  -0.990
REMARK UNBOUND:                -0.800
REMARK  Name = cpd348.pdb
REMARK  4 active torsions:
REMARK  status: ('A' for Active; 'I' for Inactive)
REMARK    1  A    between atoms: C_6  and  C_7
REMARK    2  A    between atoms: C_7  and  N_8
REMARK    3  A    between atoms: C_11  and  C_12
REMARK    4  A    between atoms: C_12  and  N_13
REMARK                            x       y       z     vdW  Elec       q    Type
REMARK                         _______ _______ _______ _____ _____    ______ ____
ROOT
ATOM      1  N   UNL A   1      43.377 -19.137 -34.472  0.00  0.00    -0.349 N 
ATOM      2  C   UNL A   1      43.656 -18.192 -35.399  0.00  0.00    +0.005 A 
ATOM      3  C   UNL A   1      44.872 -18.199 -36.074  0.00  0.00    -0.041 A 
ATOM      4  C   UNL A   1      45.829 -19.178 -35.787  0.00  0.00    -0.025 A 
ATOM      5  C   UNL A   1      45.506 -20.148 -34.836  0.00  0.00    -0.041 A 
ATOM      6  C   UNL A   1      44.276 -20.104 -34.185  0.00  0.00    +0.005 A 
ENDROOT
BRANCH   1   7
ATOM      7  C   UNL A   1      42.075 -19.096 -33.759  0.00  0.00    +0.048 C 
BRANCH   7  13
ATOM      8 CL   UNL A   1      39.629 -22.952 -36.291  0.00  0.00    -0.084 Cl
ATOM      9  C   UNL A   1      40.291 -22.285 -34.852  0.00  0.00    +0.041 A 
ATOM     10  C   UNL A   1      40.220 -22.995 -33.658  0.00  0.00    -0.043 A 
ATOM     11  C   UNL A   1      40.759 -22.446 -32.495  0.00  0.00    -0.060 A 
ATOM     12  C   UNL A   1      41.363 -21.187 -32.528  0.00  0.00    -0.057 A 
ATOM     13  C   UNL A   1      41.435 -20.459 -33.726  0.00  0.00    -0.026 A 
ATOM     14  C   UNL A   1      40.896 -21.026 -34.893  0.00  0.00    -0.039 A 
ENDBRANCH   7  13
ENDBRANCH   1   7
BRANCH   4  15
ATOM     15  C   UNL A   1      47.171 -19.206 -36.494  0.00  0.00    +0.049 C 
BRANCH  15  16
ATOM     16  N   UNL A   1      47.037 -18.918 -37.918  0.00  0.00    -0.339 N 
ATOM     17  C   UNL A   1      46.732 -19.839 -38.892  0.00  0.00    +0.023 A 
ATOM     18  C   UNL A   1      46.719 -19.189 -40.109  0.00  0.00    -0.019 A 
ATOM     19  C   UNL A   1      47.021 -17.821 -39.874  0.00  0.00    +0.003 A 
ATOM     20  C   UNL A   1      47.148 -16.695 -40.711  0.00  0.00    -0.052 A 
ATOM     21  C   UNL A   1      47.436 -15.446 -40.154  0.00  0.00    -0.061 A 
ATOM     22  C   UNL A   1      47.593 -15.307 -38.779  0.00  0.00    -0.060 A 
ATOM     23  C   UNL A   1      47.474 -16.409 -37.926  0.00  0.00    -0.038 A 
ATOM     24  C   UNL A   1      47.193 -17.665 -38.494  0.00  0.00    +0.050 A 
ATOM     25  C   UNL A   1      46.425 -19.886 -41.398  0.00  0.00    -0.025 C 
ATOM     26  C   UNL A   1      45.744 -21.243 -41.152  0.00  0.00    -0.049 C 
ATOM     27  C   UNL A   1      46.433 -22.033 -40.027  0.00  0.00    -0.047 C 
ATOM     28  C   UNL A   1      46.404 -21.281 -38.684  0.00  0.00    -0.012 C 
ENDBRANCH  15  16
ENDBRANCH   4  15
TORSDOF 4
ENDMDL
MODEL 10
REMARK VINA RESULT:    -7.422     15.576     18.207
REMARK INTER + INTRA:          -9.958
REMARK INTER:                  -9.208
REMARK INTRA:                  -0.750
REMARK UNBOUND:                -0.800
REMARK  Name = cpd348.pdb
REMARK  4 active torsions:
REMARK  status: ('A' for Active; 'I' for Inactive)
REMARK    1  A    between atoms: C_6  and  C_7
REMARK    2  A    between atoms: C_7  and  N_8
REMARK    3  A    between atoms: C_11  and  C_12
REMARK    4  A    between atoms: C_12  and  N_13
REMARK                            x       y       z     vdW  Elec       q    Type
REMARK                         _______ _______ _______ _____ _____    ______ ____
ROOT
ATOM      1  N   UNL A   1      43.553 -20.673 -40.043  0.00  0.00    -0.349 N 
ATOM      2  C   UNL A   1      42.547 -21.297 -40.696  0.00  0.00    +0.005 A 
ATOM      3  C   UNL A   1      41.500 -21.882 -39.992  0.00  0.00    -0.041 A 
ATOM      4  C   UNL A   1      41.486 -21.844 -38.594  0.00  0.00    -0.025 A 
ATOM      5  C   UNL A   1      42.531 -21.181 -37.948  0.00  0.00    -0.041 A 
ATOM      6  C   UNL A   1      43.559 -20.608 -38.693  0.00  0.00    +0.005 A 
ENDROOT
BRANCH   1   7
ATOM      7  C   UNL A   1      44.664 -20.070 -40.821  0.00  0.00    +0.048 C 
BRANCH   7  13
ATOM      8 CL   UNL A   1      49.286 -22.411 -40.173  0.00  0.00    -0.084 Cl
ATOM      9  C   UNL A   1      47.790 -22.246 -41.006  0.00  0.00    +0.041 A 
ATOM     10  C   UNL A   1      47.502 -23.069 -42.089  0.00  0.00    -0.043 A 
ATOM     11  C   UNL A   1      46.286 -22.927 -42.758  0.00  0.00    -0.060 A 
ATOM     12  C   UNL A   1      45.366 -21.961 -42.346  0.00  0.00    -0.057 A 
ATOM     13  C   UNL A   1      45.651 -21.121 -41.258  0.00  0.00    -0.026 A 
ATOM     14  C   UNL A   1      46.874 -21.278 -40.586  0.00  0.00    -0.039 A 
ENDBRANCH   7  13
ENDBRANCH   1   7
BRANCH   4  15
ATOM     15  C   UNL A   1      40.366 -22.484 -37.795  0.00  0.00    +0.049 C 
BRANCH  15  16
ATOM     16  N   UNL A   1      39.887 -21.602 -36.736  0.00  0.00    -0.339 N 
ATOM     17  C   UNL A   1      39.286 -20.381 -36.928  0.00  0.00    +0.023 A 
ATOM     18  C   UNL A   1      38.998 -19.844 -35.690  0.00  0.00    -0.019 A 
ATOM     19  C   UNL A   1      39.431 -20.770 -34.704  0.00  0.00    +0.003 A 
ATOM     20  C   UNL A   1      39.405 -20.775 -33.295  0.00  0.00    -0.052 A 
ATOM     21  C   UNL A   1      39.901 -21.880 -32.597  0.00  0.00    -0.061 A 
ATOM     22  C   UNL A   1      40.416 -22.974 -33.282  0.00  0.00    -0.060 A 
ATOM     23  C   UNL A   1      40.456 -22.994 -34.681  0.00  0.00    -0.038 A 
ATOM     24  C   UNL A   1      39.963 -21.875 -35.378  0.00  0.00    +0.050 A 
ATOM     25  C   UNL A   1      38.340 -18.514 -35.515  0.00  0.00    -0.025 C 
ATOM     26  C   UNL A   1      37.666 -18.053 -36.819  0.00  0.00    -0.049 C 
ATOM     27  C   UNL A   1      38.574 -18.272 -38.041  0.00  0.00    -0.047 C 
ATOM     28  C   UNL A   1      38.937 -19.754 -38.239  0.00  0.00    -0.012 C 
ENDBRANCH  15  16
ENDBRANCH   4  15
TORSDOF 4
ENDMDL
MODEL 11
REMARK VINA RESULT:    -7.387     16.028     19.583
REMARK INTER + INTRA:          -9.915
REMARK INTER:                  -8.945
REMARK INTRA:                  -0.970
REMARK UNBOUND:                -0.800
REMARK  Name = cpd348.pdb
REMARK  4 active torsions:
REMARK  status: ('A' for Active; 'I' for Inactive)
REMARK    1  A    between atoms: C_6  and  C_7
REMARK    2  A    between atoms: C_7  and  N_8
REMARK    3  A    between atoms: C_11  and  C_12
REMARK    4  A    between atoms: C_12  and  N_13
REMARK                            x       y       z     vdW  Elec       q    Type
REMARK                         _______ _______ _______ _____ _____    ______ ____
ROOT
ATOM      1  N   UNL A   1      40.317 -21.608 -37.706  0.00  0.00    -0.349 N 
ATOM      2  C   UNL A   1      40.289 -20.300 -38.050  0.00  0.00    +0.005 A 
ATOM      3  C   UNL A   1      41.198 -19.790 -38.971  0.00  0.00    -0.041 A 
ATOM      4  C   UNL A   1      42.165 -20.626 -39.540  0.00  0.00    -0.025 A 
ATOM      5  C   UNL A   1      42.159 -21.974 -39.176  0.00  0.00    -0.041 A 
ATOM      6  C   UNL A   1      41.230 -22.442 -38.251  0.00  0.00    +0.005 A 
ENDROOT
BRANCH   1   7
ATOM      7  C   UNL A   1      39.341 -22.121 -36.711  0.00  0.00    +0.048 C 
BRANCH   7  13
ATOM      8 CL   UNL A   1      41.374 -23.810 -32.208  0.00  0.00    -0.084 Cl
ATOM      9  C   UNL A   1      40.734 -22.550 -33.186  0.00  0.00    +0.041 A 
ATOM     10  C   UNL A   1      40.620 -21.261 -32.676  0.00  0.00    -0.043 A 
ATOM     11  C   UNL A   1      40.099 -20.245 -33.477  0.00  0.00    -0.060 A 
ATOM     12  C   UNL A   1      39.690 -20.521 -34.783  0.00  0.00    -0.057 A 
ATOM     13  C   UNL A   1      39.795 -21.820 -35.306  0.00  0.00    -0.026 A 
ATOM     14  C   UNL A   1      40.329 -22.834 -34.493  0.00  0.00    -0.039 A 
ENDBRANCH   7  13
ENDBRANCH   1   7
BRANCH   4  15
ATOM     15  C   UNL A   1      43.180 -20.099 -40.536  0.00  0.00    +0.049 C 
BRANCH  15  16
ATOM     16  N   UNL A   1      44.549 -20.350 -40.096  0.00  0.00    -0.339 N 
ATOM     17  C   UNL A   1      45.457 -21.158 -40.739  0.00  0.00    +0.023 A 
ATOM     18  C   UNL A   1      46.626 -21.159 -40.006  0.00  0.00    -0.019 A 
ATOM     19  C   UNL A   1      46.431 -20.319 -38.877  0.00  0.00    +0.003 A 
ATOM     20  C   UNL A   1      47.249 -19.937 -37.795  0.00  0.00    -0.052 A 
ATOM     21  C   UNL A   1      46.758 -19.049 -36.835  0.00  0.00    -0.061 A 
ATOM     22  C   UNL A   1      45.470 -18.537 -36.941  0.00  0.00    -0.060 A 
ATOM     23  C   UNL A   1      44.636 -18.901 -38.004  0.00  0.00    -0.038 A 
ATOM     24  C   UNL A   1      45.133 -19.802 -38.963  0.00  0.00    +0.050 A 
ATOM     25  C   UNL A   1      47.836 -21.937 -40.409  0.00  0.00    -0.025 C 
ATOM     26  C   UNL A   1      47.759 -22.354 -41.888  0.00  0.00    -0.049 C 
ATOM     27  C   UNL A   1      46.372 -22.905 -42.257  0.00  0.00    -0.047 C 
ATOM     28  C   UNL A   1      45.256 -21.867 -42.038  0.00  0.00    -0.012 C 
ENDBRANCH  15  16
ENDBRANCH   4  15
TORSDOF 4
ENDMDL
MODEL 12
REMARK VINA RESULT:    -7.376     15.941     19.593
REMARK INTER + INTRA:          -9.902
REMARK INTER:                  -9.028
REMARK INTRA:                  -0.874
REMARK UNBOUND:                -0.800
REMARK  Name = cpd348.pdb
REMARK  4 active torsions:
REMARK  status: ('A' for Active; 'I' for Inactive)
REMARK    1  A    between atoms: C_6  and  C_7
REMARK    2  A    between atoms: C_7  and  N_8
REMARK    3  A    between atoms: C_11  and  C_12
REMARK    4  A    between atoms: C_12  and  N_13
REMARK                            x       y       z     vdW  Elec       q    Type
REMARK                         _______ _______ _______ _____ _____    ______ ____
ROOT
ATOM      1  N   UNL A   1      40.075 -21.849 -37.355  0.00  0.00    -0.349 N 
ATOM      2  C   UNL A   1      41.387 -22.150 -37.488  0.00  0.00    +0.005 A 
ATOM      3  C   UNL A   1      42.216 -21.369 -38.286  0.00  0.00    -0.041 A 
ATOM      4  C   UNL A   1      41.695 -20.269 -38.974  0.00  0.00    -0.025 A 
ATOM      5  C   UNL A   1      40.341 -19.974 -38.806  0.00  0.00    -0.041 A 
ATOM      6  C   UNL A   1      39.547 -20.782 -37.996  0.00  0.00    +0.005 A 
ENDROOT
BRANCH   1   7
ATOM      7  C   UNL A   1      39.213 -22.708 -36.506  0.00  0.00    +0.048 C 
BRANCH   7  13
ATOM      8 CL   UNL A   1      41.152 -22.919 -31.663  0.00  0.00    -0.084 Cl
ATOM      9  C   UNL A   1      40.050 -22.269 -32.811  0.00  0.00    +0.041 A 
ATOM     10  C   UNL A   1      39.129 -21.302 -32.423  0.00  0.00    -0.043 A 
ATOM     11  C   UNL A   1      38.239 -20.782 -33.361  0.00  0.00    -0.060 A 
ATOM     12  C   UNL A   1      38.268 -21.232 -34.683  0.00  0.00    -0.057 A 
ATOM     13  C   UNL A   1      39.189 -22.213 -35.083  0.00  0.00    -0.026 A 
ATOM     14  C   UNL A   1      40.087 -22.724 -34.132  0.00  0.00    -0.039 A 
ENDBRANCH   7  13
ENDBRANCH   1   7
BRANCH   4  15
ATOM     15  C   UNL A   1      42.569 -19.405 -39.864  0.00  0.00    +0.049 C 
BRANCH  15  16
ATOM     16  N   UNL A   1      43.968 -19.818 -39.813  0.00  0.00    -0.339 N 
ATOM     17  C   UNL A   1      44.879 -19.426 -38.861  0.00  0.00    +0.023 A 
ATOM     18  C   UNL A   1      46.094 -20.005 -39.166  0.00  0.00    -0.019 A 
ATOM     19  C   UNL A   1      45.921 -20.784 -40.341  0.00  0.00    +0.003 A 
ATOM     20  C   UNL A   1      46.784 -21.588 -41.111  0.00  0.00    -0.052 A 
ATOM     21  C   UNL A   1      46.288 -22.264 -42.229  0.00  0.00    -0.061 A 
ATOM     22  C   UNL A   1      44.948 -22.152 -42.583  0.00  0.00    -0.060 A 
ATOM     23  C   UNL A   1      44.070 -21.359 -41.837  0.00  0.00    -0.038 A 
ATOM     24  C   UNL A   1      44.578 -20.674 -40.718  0.00  0.00    +0.050 A 
ATOM     25  C   UNL A   1      47.322 -19.794 -38.342  0.00  0.00    -0.025 C 
ATOM     26  C   UNL A   1      46.969 -19.242 -36.950  0.00  0.00    -0.049 C 
ATOM     27  C   UNL A   1      45.932 -18.110 -37.030  0.00  0.00    -0.047 C 
ATOM     28  C   UNL A   1      44.608 -18.575 -37.663  0.00  0.00    -0.012 C 
ENDBRANCH  15  16
ENDBRANCH   4  15
TORSDOF 4
ENDMDL
MODEL 13
REMARK VINA RESULT:    -7.323     16.540     19.838
REMARK INTER + INTRA:          -9.836
REMARK INTER:                  -8.829
REMARK INTRA:                  -1.008
REMARK UNBOUND:                -0.800
REMARK  Name = cpd348.pdb
REMARK  4 active torsions:
REMARK  status: ('A' for Active; 'I' for Inactive)
REMARK    1  A    between atoms: C_6  and  C_7
REMARK    2  A    between atoms: C_7  and  N_8
REMARK    3  A    between atoms: C_11  and  C_12
REMARK    4  A    between atoms: C_12  and  N_13
REMARK                            x       y       z     vdW  Elec       q    Type
REMARK                         _______ _______ _______ _____ _____    ______ ____
ROOT
ATOM      1  N   UNL A   1      41.363 -20.311 -35.854  0.00  0.00    -0.349 N 
ATOM      2  C   UNL A   1      42.603 -20.759 -36.154  0.00  0.00    +0.005 A 
ATOM      3  C   UNL A   1      42.998 -20.922 -37.478  0.00  0.00    -0.041 A 
ATOM      4  C   UNL A   1      42.105 -20.637 -38.516  0.00  0.00    -0.025 A 
ATOM      5  C   UNL A   1      40.837 -20.162 -38.176  0.00  0.00    -0.041 A 
ATOM      6  C   UNL A   1      40.484 -20.013 -36.837  0.00  0.00    +0.005 A 
ENDROOT
BRANCH   1   7
ATOM      7  C   UNL A   1      40.967 -20.159 -34.431  0.00  0.00    +0.048 C 
BRANCH   7  13
ATOM      8 CL   UNL A   1      41.927 -23.913 -30.930  0.00  0.00    -0.084 Cl
ATOM      9  C   UNL A   1      40.994 -23.270 -32.224  0.00  0.00    +0.041 A 
ATOM     10  C   UNL A   1      39.911 -23.984 -32.724  0.00  0.00    -0.043 A 
ATOM     11  C   UNL A   1      39.161 -23.454 -33.773  0.00  0.00    -0.060 A 
ATOM     12  C   UNL A   1      39.499 -22.216 -34.323  0.00  0.00    -0.057 A 
ATOM     13  C   UNL A   1      40.595 -21.490 -33.830  0.00  0.00    -0.026 A 
ATOM     14  C   UNL A   1      41.338 -22.029 -32.767  0.00  0.00    -0.039 A 
ENDBRANCH   7  13
ENDBRANCH   1   7
BRANCH   4  15
ATOM     15  C   UNL A   1      42.498 -20.817 -39.970  0.00  0.00    +0.049 C 
BRANCH  15  16
ATOM     16  N   UNL A   1      43.732 -20.106 -40.288  0.00  0.00    -0.339 N 
ATOM     17  C   UNL A   1      43.847 -18.746 -40.454  0.00  0.00    +0.023 A 
ATOM     18  C   UNL A   1      45.161 -18.462 -40.768  0.00  0.00    -0.019 A 
ATOM     19  C   UNL A   1      45.877 -19.688 -40.789  0.00  0.00    +0.003 A 
ATOM     20  C   UNL A   1      47.222 -20.025 -41.041  0.00  0.00    -0.052 A 
ATOM     21  C   UNL A   1      47.629 -21.359 -40.956  0.00  0.00    -0.061 A 
ATOM     22  C   UNL A   1      46.719 -22.355 -40.620  0.00  0.00    -0.060 A 
ATOM     23  C   UNL A   1      45.378 -22.047 -40.366  0.00  0.00    -0.038 A 
ATOM     24  C   UNL A   1      44.972 -20.704 -40.463  0.00  0.00    +0.050 A 
ATOM     25  C   UNL A   1      45.652 -17.074 -41.021  0.00  0.00    -0.025 C 
ATOM     26  C   UNL A   1      44.661 -16.027 -40.483  0.00  0.00    -0.049 C 
ATOM     27  C   UNL A   1      43.208 -16.374 -40.849  0.00  0.00    -0.047 C 
ATOM     28  C   UNL A   1      42.768 -17.730 -40.269  0.00  0.00    -0.012 C 
ENDBRANCH  15  16
ENDBRANCH   4  15
TORSDOF 4
ENDMDL
MODEL 14
REMARK VINA RESULT:    -7.301     15.625     18.509
REMARK INTER + INTRA:          -9.809
REMARK INTER:                  -8.863
REMARK INTRA:                  -0.946
REMARK UNBOUND:                -0.800
REMARK  Name = cpd348.pdb
REMARK  4 active torsions:
REMARK  status: ('A' for Active; 'I' for Inactive)
REMARK    1  A    between atoms: C_6  and  C_7
REMARK    2  A    between atoms: C_7  and  N_8
REMARK    3  A    between atoms: C_11  and  C_12
REMARK    4  A    between atoms: C_12  and  N_13
REMARK                            x       y       z     vdW  Elec       q    Type
REMARK                         _______ _______ _______ _____ _____    ______ ____
ROOT
ATOM      1  N   UNL A   1      42.554 -20.742 -40.189  0.00  0.00    -0.349 N 
ATOM      2  C   UNL A   1      42.403 -19.453 -39.809  0.00  0.00    +0.005 A 
ATOM      3  C   UNL A   1      41.503 -19.110 -38.807  0.00  0.00    -0.041 A 
ATOM      4  C   UNL A   1      40.729 -20.098 -38.190  0.00  0.00    -0.025 A 
ATOM      5  C   UNL A   1      40.916 -21.421 -38.593  0.00  0.00    -0.041 A 
ATOM      6  C   UNL A   1      41.830 -21.720 -39.601  0.00  0.00    +0.005 A 
ENDROOT
BRANCH   1   7
ATOM      7  C   UNL A   1      43.514 -21.076 -41.272  0.00  0.00    +0.048 C 
BRANCH   7  13
ATOM      8 CL   UNL A   1      48.091 -23.530 -41.811  0.00  0.00    -0.084 Cl
ATOM      9  C   UNL A   1      47.011 -22.550 -40.900  0.00  0.00    +0.041 A 
ATOM     10  C   UNL A   1      47.379 -22.098 -39.637  0.00  0.00    -0.043 A 
ATOM     11  C   UNL A   1      46.497 -21.304 -38.905  0.00  0.00    -0.060 A 
ATOM     12  C   UNL A   1      45.248 -20.969 -39.434  0.00  0.00    -0.057 A 
ATOM     13  C   UNL A   1      44.865 -21.426 -40.705  0.00  0.00    -0.026 A 
ATOM     14  C   UNL A   1      45.765 -22.218 -41.437  0.00  0.00    -0.039 A 
ENDBRANCH   7  13
ENDBRANCH   1   7
BRANCH   4  15
ATOM     15  C   UNL A   1      39.727 -19.756 -37.103  0.00  0.00    +0.049 C 
BRANCH  15  16
ATOM     16  N   UNL A   1      40.225 -20.112 -35.778  0.00  0.00    -0.339 N 
ATOM     17  C   UNL A   1      41.070 -19.344 -35.012  0.00  0.00    +0.023 A 
ATOM     18  C   UNL A   1      41.329 -20.028 -33.842  0.00  0.00    -0.019 A 
ATOM     19  C   UNL A   1      40.615 -21.255 -33.889  0.00  0.00    +0.003 A 
ATOM     20  C   UNL A   1      40.492 -22.343 -33.002  0.00  0.00    -0.052 A 
ATOM     21  C   UNL A   1      39.668 -23.421 -33.338  0.00  0.00    -0.061 A 
ATOM     22  C   UNL A   1      38.966 -23.424 -34.539  0.00  0.00    -0.060 A 
ATOM     23  C   UNL A   1      39.072 -22.357 -35.437  0.00  0.00    -0.038 A 
ATOM     24  C   UNL A   1      39.911 -21.280 -35.097  0.00  0.00    +0.050 A 
ATOM     25  C   UNL A   1      42.218 -19.490 -32.768  0.00  0.00    -0.025 C 
ATOM     26  C   UNL A   1      42.434 -17.976 -32.934  0.00  0.00    -0.049 C 
ATOM     27  C   UNL A   1      42.730 -17.597 -34.395  0.00  0.00    -0.047 C 
ATOM     28  C   UNL A   1      41.577 -17.978 -35.341  0.00  0.00    -0.012 C 
ENDBRANCH  15  16
ENDBRANCH   4  15
TORSDOF 4
ENDMDL
MODEL 15
REMARK VINA RESULT:    -7.187     17.523     20.257
REMARK INTER + INTRA:          -9.668
REMARK INTER:                  -8.602
REMARK INTRA:                  -1.066
REMARK UNBOUND:                -0.800
REMARK  Name = cpd348.pdb
REMARK  4 active torsions:
REMARK  status: ('A' for Active; 'I' for Inactive)
REMARK    1  A    between atoms: C_6  and  C_7
REMARK    2  A    between atoms: C_7  and  N_8
REMARK    3  A    between atoms: C_11  and  C_12
REMARK    4  A    between atoms: C_12  and  N_13
REMARK                            x       y       z     vdW  Elec       q    Type
REMARK                         _______ _______ _______ _____ _____    ______ ____
ROOT
ATOM      1  N   UNL A   1      45.699 -18.789 -38.553  0.00  0.00    -0.349 N 
ATOM      2  C   UNL A   1      46.702 -18.996 -37.670  0.00  0.00    +0.005 A 
ATOM      3  C   UNL A   1      46.436 -19.488 -36.397  0.00  0.00    -0.041 A 
ATOM      4  C   UNL A   1      45.119 -19.760 -36.010  0.00  0.00    -0.025 A 
ATOM      5  C   UNL A   1      44.107 -19.549 -36.948  0.00  0.00    -0.041 A 
ATOM      6  C   UNL A   1      44.418 -19.056 -38.212  0.00  0.00    +0.005 A 
ENDROOT
BRANCH   1   7
ATOM      7  C   UNL A   1      46.013 -18.250 -39.900  0.00  0.00    +0.048 C 
BRANCH   7  13
ATOM      8 CL   UNL A   1      46.569 -22.917 -42.175  0.00  0.00    -0.084 Cl
ATOM      9  C   UNL A   1      45.817 -21.374 -42.080  0.00  0.00    +0.041 A 
ATOM     10  C   UNL A   1      44.843 -21.015 -43.005  0.00  0.00    -0.043 A 
ATOM     11  C   UNL A   1      44.239 -19.761 -42.920  0.00  0.00    -0.060 A 
ATOM     12  C   UNL A   1      44.613 -18.869 -41.914  0.00  0.00    -0.057 A 
ATOM     13  C   UNL A   1      45.600 -19.218 -40.978  0.00  0.00    -0.026 A 
ATOM     14  C   UNL A   1      46.196 -20.487 -41.069  0.00  0.00    -0.039 A 
ENDBRANCH   7  13
ENDBRANCH   1   7
BRANCH   4  15
ATOM     15  C   UNL A   1      44.792 -20.284 -34.625  0.00  0.00    +0.049 C 
BRANCH  15  16
ATOM     16  N   UNL A   1      43.798 -19.452 -33.954  0.00  0.00    -0.339 N 
ATOM     17  C   UNL A   1      42.527 -19.851 -33.611  0.00  0.00    +0.023 A 
ATOM     18  C   UNL A   1      41.887 -18.781 -33.019  0.00  0.00    -0.019 A 
ATOM     19  C   UNL A   1      42.798 -17.691 -32.991  0.00  0.00    +0.003 A 
ATOM     20  C   UNL A   1      42.716 -16.366 -32.519  0.00  0.00    -0.052 A 
ATOM     21  C   UNL A   1      43.828 -15.525 -32.618  0.00  0.00    -0.061 A 
ATOM     22  C   UNL A   1      45.014 -15.988 -33.175  0.00  0.00    -0.060 A 
ATOM     23  C   UNL A   1      45.122 -17.298 -33.653  0.00  0.00    -0.038 A 
ATOM     24  C   UNL A   1      43.996 -18.137 -33.559  0.00  0.00    +0.050 A 
ATOM     25  C   UNL A   1      40.481 -18.852 -32.521  0.00  0.00    -0.025 C 
ATOM     26  C   UNL A   1      40.021 -20.312 -32.362  0.00  0.00    -0.049 C 
ATOM     27  C   UNL A   1      40.419 -21.172 -33.573  0.00  0.00    -0.047 C 
ATOM     28  C   UNL A   1      41.943 -21.215 -33.782  0.00  0.00    -0.012 C 
ENDBRANCH  15  16
ENDBRANCH   4  15
TORSDOF 4
ENDMDL
MODEL 16
REMARK VINA RESULT:    -7.109     17.412     20.367
REMARK INTER + INTRA:          -9.572
REMARK INTER:                  -8.501
REMARK INTRA:                  -1.071
REMARK UNBOUND:                -0.800
REMARK  Name = cpd348.pdb
REMARK  4 active torsions:
REMARK  status: ('A' for Active; 'I' for Inactive)
REMARK    1  A    between atoms: C_6  and  C_7
REMARK    2  A    between atoms: C_7  and  N_8
REMARK    3  A    between atoms: C_11  and  C_12
REMARK    4  A    between atoms: C_12  and  N_13
REMARK                            x       y       z     vdW  Elec       q    Type
REMARK                         _______ _______ _______ _____ _____    ______ ____
ROOT
ATOM      1  N   UNL A   1      45.963 -18.981 -38.639  0.00  0.00    -0.349 N 
ATOM      2  C   UNL A   1      44.656 -19.101 -38.311  0.00  0.00    +0.005 A 
ATOM      3  C   UNL A   1      44.280 -19.542 -37.047  0.00  0.00    -0.041 A 
ATOM      4  C   UNL A   1      45.254 -19.882 -36.103  0.00  0.00    -0.025 A 
ATOM      5  C   UNL A   1      46.594 -19.734 -36.465  0.00  0.00    -0.041 A 
ATOM      6  C   UNL A   1      46.926 -19.288 -37.742  0.00  0.00    +0.005 A 
ENDROOT
BRANCH   1   7
ATOM      7  C   UNL A   1      46.333 -18.520 -40.000  0.00  0.00    +0.048 C 
BRANCH   7  13
ATOM      8 CL   UNL A   1      46.679 -23.168 -42.354  0.00  0.00    -0.084 Cl
ATOM      9  C   UNL A   1      45.945 -21.623 -42.184  0.00  0.00    +0.041 A 
ATOM     10  C   UNL A   1      44.901 -21.251 -43.025  0.00  0.00    -0.043 A 
ATOM     11  C   UNL A   1      44.312 -19.996 -42.879  0.00  0.00    -0.060 A 
ATOM     12  C   UNL A   1      44.771 -19.113 -41.899  0.00  0.00    -0.057 A 
ATOM     13  C   UNL A   1      45.829 -19.476 -41.050  0.00  0.00    -0.026 A 
ATOM     14  C   UNL A   1      46.409 -20.747 -41.199  0.00  0.00    -0.039 A 
ENDBRANCH   7  13
ENDBRANCH   1   7
BRANCH   4  15
ATOM     15  C   UNL A   1      44.878 -20.379 -34.720  0.00  0.00    +0.049 C 
BRANCH  15  16
ATOM     16  N   UNL A   1      43.797 -19.591 -34.138  0.00  0.00    -0.339 N 
ATOM     17  C   UNL A   1      43.947 -18.380 -33.504  0.00  0.00    +0.023 A 
ATOM     18  C   UNL A   1      42.703 -17.965 -33.073  0.00  0.00    -0.019 A 
ATOM     19  C   UNL A   1      41.757 -18.951 -33.461  0.00  0.00    +0.003 A 
ATOM     20  C   UNL A   1      40.363 -19.078 -33.303  0.00  0.00    -0.052 A 
ATOM     21  C   UNL A   1      39.703 -20.188 -33.837  0.00  0.00    -0.061 A 
ATOM     22  C   UNL A   1      40.412 -21.165 -34.526  0.00  0.00    -0.060 A 
ATOM     23  C   UNL A   1      41.797 -21.065 -34.695  0.00  0.00    -0.038 A 
ATOM     24  C   UNL A   1      42.457 -19.950 -34.147  0.00  0.00    +0.050 A 
ATOM     25  C   UNL A   1      42.486 -16.683 -32.336  0.00  0.00    -0.025 C 
ATOM     26  C   UNL A   1      43.688 -15.737 -32.503  0.00  0.00    -0.049 C 
ATOM     27  C   UNL A   1      45.025 -16.474 -32.323  0.00  0.00    -0.047 C 
ATOM     28  C   UNL A   1      45.213 -17.602 -33.353  0.00  0.00    -0.012 C 
ENDBRANCH  15  16
ENDBRANCH   4  15
TORSDOF 4
ENDMDL
MODEL 17
REMARK VINA RESULT:    -7.071     17.417     20.872
REMARK INTER + INTRA:          -9.525
REMARK INTER:                  -8.488
REMARK INTRA:                  -1.037
REMARK UNBOUND:                -0.800
REMARK  Name = cpd348.pdb
REMARK  4 active torsions:
REMARK  status: ('A' for Active; 'I' for Inactive)
REMARK    1  A    between atoms: C_6  and  C_7
REMARK    2  A    between atoms: C_7  and  N_8
REMARK    3  A    between atoms: C_11  and  C_12
REMARK    4  A    between atoms: C_12  and  N_13
REMARK                            x       y       z     vdW  Elec       q    Type
REMARK                         _______ _______ _______ _____ _____    ______ ____
ROOT
ATOM      1  N   UNL A   1      43.226 -19.236 -34.129  0.00  0.00    -0.349 N 
ATOM      2  C   UNL A   1      42.757 -19.412 -35.385  0.00  0.00    +0.005 A 
ATOM      3  C   UNL A   1      43.609 -19.800 -36.413  0.00  0.00    -0.041 A 
ATOM      4  C   UNL A   1      44.970 -19.997 -36.160  0.00  0.00    -0.025 A 
ATOM      5  C   UNL A   1      45.423 -19.822 -34.851  0.00  0.00    -0.041 A 
ATOM      6  C   UNL A   1      44.534 -19.434 -33.852  0.00  0.00    +0.005 A 
ENDROOT
BRANCH   1   7
ATOM      7  C   UNL A   1      42.294 -18.809 -33.056  0.00  0.00    +0.048 C 
BRANCH   7  13
ATOM      8 CL   UNL A   1      37.153 -19.669 -32.748  0.00  0.00    -0.084 Cl
ATOM      9  C   UNL A   1      38.773 -20.245 -32.759  0.00  0.00    +0.041 A 
ATOM     10  C   UNL A   1      39.030 -21.604 -32.618  0.00  0.00    -0.043 A 
ATOM     11  C   UNL A   1      40.347 -22.062 -32.629  0.00  0.00    -0.060 A 
ATOM     12  C   UNL A   1      41.403 -21.160 -32.774  0.00  0.00    -0.057 A 
ATOM     13  C   UNL A   1      41.154 -19.785 -32.911  0.00  0.00    -0.026 A 
ATOM     14  C   UNL A   1      39.823 -19.336 -32.908  0.00  0.00    -0.039 A 
ENDBRANCH   7  13
ENDBRANCH   1   7
BRANCH   4  15
ATOM     15  C   UNL A   1      45.931 -20.406 -37.261  0.00  0.00    +0.049 C 
BRANCH  15  16
ATOM     16  N   UNL A   1      45.836 -19.520 -38.416  0.00  0.00    -0.339 N 
ATOM     17  C   UNL A   1      46.331 -18.240 -38.480  0.00  0.00    +0.023 A 
ATOM     18  C   UNL A   1      46.025 -17.722 -39.723  0.00  0.00    -0.019 A 
ATOM     19  C   UNL A   1      45.323 -18.722 -40.448  0.00  0.00    +0.003 A 
ATOM     20  C   UNL A   1      44.767 -18.776 -41.741  0.00  0.00    -0.052 A 
ATOM     21  C   UNL A   1      44.146 -19.948 -42.181  0.00  0.00    -0.061 A 
ATOM     22  C   UNL A   1      44.077 -21.063 -41.352  0.00  0.00    -0.060 A 
ATOM     23  C   UNL A   1      44.620 -21.035 -40.063  0.00  0.00    -0.038 A 
ATOM     24  C   UNL A   1      45.235 -19.849 -39.623  0.00  0.00    +0.050 A 
ATOM     25  C   UNL A   1      46.409 -16.341 -40.143  0.00  0.00    -0.025 C 
ATOM     26  C   UNL A   1      47.508 -15.769 -39.232  0.00  0.00    -0.049 C 
ATOM     27  C   UNL A   1      47.213 -16.032 -37.746  0.00  0.00    -0.047 C 
ATOM     28  C   UNL A   1      47.121 -17.535 -37.427  0.00  0.00    -0.012 C 
ENDBRANCH  15  16
ENDBRANCH   4  15
TORSDOF 4
ENDMDL
MODEL 18
REMARK VINA RESULT:    -6.968     16.841     20.145
REMARK INTER + INTRA:          -9.398
REMARK INTER:                  -8.317
REMARK INTRA:                  -1.080
REMARK UNBOUND:                -0.800
REMARK  Name = cpd348.pdb
REMARK  4 active torsions:
REMARK  status: ('A' for Active; 'I' for Inactive)
REMARK    1  A    between atoms: C_6  and  C_7
REMARK    2  A    between atoms: C_7  and  N_8
REMARK    3  A    between atoms: C_11  and  C_12
REMARK    4  A    between atoms: C_12  and  N_13
REMARK                            x       y       z     vdW  Elec       q    Type
REMARK                         _______ _______ _______ _____ _____    ______ ____
ROOT
ATOM      1  N   UNL A   1      41.621 -20.041 -35.395  0.00  0.00    -0.349 N 
ATOM      2  C   UNL A   1      42.321 -21.047 -35.967  0.00  0.00    +0.005 A 
ATOM      3  C   UNL A   1      42.519 -21.080 -37.344  0.00  0.00    -0.041 A 
ATOM      4  C   UNL A   1      41.980 -20.076 -38.154  0.00  0.00    -0.025 A 
ATOM      5  C   UNL A   1      41.274 -19.043 -37.534  0.00  0.00    -0.041 A 
ATOM      6  C   UNL A   1      41.100 -19.050 -36.152  0.00  0.00    +0.005 A 
ENDROOT
BRANCH   1   7
ATOM      7  C   UNL A   1      41.415 -20.041 -33.925  0.00  0.00    +0.048 C 
BRANCH   7  13
ATOM      8 CL   UNL A   1      38.192 -24.145 -33.738  0.00  0.00    -0.084 Cl
ATOM      9  C   UNL A   1      38.520 -22.481 -33.459  0.00  0.00    +0.041 A 
ATOM     10  C   UNL A   1      37.537 -21.657 -32.922  0.00  0.00    -0.043 A 
ATOM     11  C   UNL A   1      37.812 -20.308 -32.700  0.00  0.00    -0.060 A 
ATOM     12  C   UNL A   1      39.067 -19.786 -33.020  0.00  0.00    -0.057 A 
ATOM     13  C   UNL A   1      40.065 -20.607 -33.568  0.00  0.00    -0.026 A 
ATOM     14  C   UNL A   1      39.779 -21.966 -33.780  0.00  0.00    -0.039 A 
ENDBRANCH   7  13
ENDBRANCH   1   7
BRANCH   4  15
ATOM     15  C   UNL A   1      42.165 -20.088 -39.660  0.00  0.00    +0.049 C 
BRANCH  15  16
ATOM     16  N   UNL A   1      43.443 -19.502 -40.052  0.00  0.00    -0.339 N 
ATOM     17  C   UNL A   1      44.609 -20.201 -40.256  0.00  0.00    +0.023 A 
ATOM     18  C   UNL A   1      45.598 -19.297 -40.590  0.00  0.00    -0.019 A 
ATOM     19  C   UNL A   1      45.016 -18.001 -40.597  0.00  0.00    +0.003 A 
ATOM     20  C   UNL A   1      45.518 -16.711 -40.860  0.00  0.00    -0.052 A 
ATOM     21  C   UNL A   1      44.659 -15.609 -40.809  0.00  0.00    -0.061 A 
ATOM     22  C   UNL A   1      43.313 -15.779 -40.505  0.00  0.00    -0.060 A 
ATOM     23  C   UNL A   1      42.790 -17.048 -40.238  0.00  0.00    -0.038 A 
ATOM     24  C   UNL A   1      43.661 -18.152 -40.282  0.00  0.00    +0.050 A 
ATOM     25  C   UNL A   1      47.005 -19.705 -40.880  0.00  0.00    -0.025 C 
ATOM     26  C   UNL A   1      47.097 -21.213 -41.174  0.00  0.00    -0.049 C 
ATOM     27  C   UNL A   1      46.280 -22.042 -40.168  0.00  0.00    -0.047 C 
ATOM     28  C   UNL A   1      44.784 -21.683 -40.195  0.00  0.00    -0.012 C 
ENDBRANCH  15  16
ENDBRANCH   4  15
TORSDOF 4
ENDMDL
MODEL 19
REMARK VINA RESULT:    -6.828     16.481     19.122
REMARK INTER + INTRA:          -9.225
REMARK INTER:                  -8.046
REMARK INTRA:                  -1.179
REMARK UNBOUND:                -0.800
REMARK  Name = cpd348.pdb
REMARK  4 active torsions:
REMARK  status: ('A' for Active; 'I' for Inactive)
REMARK    1  A    between atoms: C_6  and  C_7
REMARK    2  A    between atoms: C_7  and  N_8
REMARK    3  A    between atoms: C_11  and  C_12
REMARK    4  A    between atoms: C_12  and  N_13
REMARK                            x       y       z     vdW  Elec       q    Type
REMARK                         _______ _______ _______ _____ _____    ______ ____
ROOT
ATOM      1  N   UNL A   1      42.786 -20.443 -40.215  0.00  0.00    -0.349 N 
ATOM      2  C   UNL A   1      43.004 -19.200 -39.727  0.00  0.00    +0.005 A 
ATOM      3  C   UNL A   1      42.255 -18.716 -38.660  0.00  0.00    -0.041 A 
ATOM      4  C   UNL A   1      41.254 -19.507 -38.089  0.00  0.00    -0.025 A 
ATOM      5  C   UNL A   1      41.061 -20.790 -38.605  0.00  0.00    -0.041 A 
ATOM      6  C   UNL A   1      41.834 -21.235 -39.674  0.00  0.00    +0.005 A 
ENDROOT
BRANCH   1   7
ATOM      7  C   UNL A   1      43.593 -20.927 -41.363  0.00  0.00    +0.048 C 
BRANCH   7  13
ATOM      8 CL   UNL A   1      48.513 -19.483 -42.348  0.00  0.00    -0.084 Cl
ATOM      9  C   UNL A   1      47.364 -20.360 -41.417  0.00  0.00    +0.041 A 
ATOM     10  C   UNL A   1      47.786 -21.144 -40.348  0.00  0.00    -0.043 A 
ATOM     11  C   UNL A   1      46.846 -21.851 -39.599  0.00  0.00    -0.060 A 
ATOM     12  C   UNL A   1      45.490 -21.779 -39.924  0.00  0.00    -0.057 A 
ATOM     13  C   UNL A   1      45.055 -20.996 -41.005  0.00  0.00    -0.026 A 
ATOM     14  C   UNL A   1      46.009 -20.280 -41.747  0.00  0.00    -0.039 A 
ENDBRANCH   7  13
ENDBRANCH   1   7
BRANCH   4  15
ATOM     15  C   UNL A   1      40.408 -19.004 -36.934  0.00  0.00    +0.049 C 
BRANCH  15  16
ATOM     16  N   UNL A   1      40.946 -19.431 -35.646  0.00  0.00    -0.339 N 
ATOM     17  C   UNL A   1      40.510 -20.515 -34.922  0.00  0.00    +0.023 A 
ATOM     18  C   UNL A   1      41.246 -20.576 -33.756  0.00  0.00    -0.019 A 
ATOM     19  C   UNL A   1      42.168 -19.496 -33.768  0.00  0.00    +0.003 A 
ATOM     20  C   UNL A   1      43.158 -19.051 -32.869  0.00  0.00    -0.052 A 
ATOM     21  C   UNL A   1      43.939 -17.938 -33.192  0.00  0.00    -0.061 A 
ATOM     22  C   UNL A   1      43.748 -17.270 -34.396  0.00  0.00    -0.060 A 
ATOM     23  C   UNL A   1      42.771 -17.688 -35.305  0.00  0.00    -0.038 A 
ATOM     24  C   UNL A   1      41.982 -18.804 -34.970  0.00  0.00    +0.050 A 
ATOM     25  C   UNL A   1      41.039 -21.633 -32.720  0.00  0.00    -0.025 C 
ATOM     26  C   UNL A   1      40.256 -22.826 -33.294  0.00  0.00    -0.049 C 
ATOM     27  C   UNL A   1      39.050 -22.369 -34.133  0.00  0.00    -0.047 C 
ATOM     28  C   UNL A   1      39.470 -21.505 -35.335  0.00  0.00    -0.012 C 
ENDBRANCH  15  16
ENDBRANCH   4  15
TORSDOF 4
ENDMDL
MODEL 20
REMARK VINA RESULT:    -6.694     15.860     18.442
REMARK INTER + INTRA:          -9.060
REMARK INTER:                  -8.171
REMARK INTRA:                  -0.889
REMARK UNBOUND:                -0.800
REMARK  Name = cpd348.pdb
REMARK  4 active torsions:
REMARK  status: ('A' for Active; 'I' for Inactive)
REMARK    1  A    between atoms: C_6  and  C_7
REMARK    2  A    between atoms: C_7  and  N_8
REMARK    3  A    between atoms: C_11  and  C_12
REMARK    4  A    between atoms: C_12  and  N_13
REMARK                            x       y       z     vdW  Elec       q    Type
REMARK                         _______ _______ _______ _____ _____    ______ ____
ROOT
ATOM      1  N   UNL A   1      44.178 -19.363 -37.376  0.00  0.00    -0.349 N 
ATOM      2  C   UNL A   1      42.851 -19.623 -37.391  0.00  0.00    +0.005 A 
ATOM      3  C   UNL A   1      42.215 -20.131 -36.264  0.00  0.00    -0.041 A 
ATOM      4  C   UNL A   1      42.948 -20.393 -35.102  0.00  0.00    -0.025 A 
ATOM      5  C   UNL A   1      44.313 -20.102 -35.111  0.00  0.00    -0.041 A 
ATOM      6  C   UNL A   1      44.910 -19.594 -36.262  0.00  0.00    +0.005 A 
ENDROOT
BRANCH   1   7
ATOM      7  C   UNL A   1      44.832 -18.834 -38.599  0.00  0.00    +0.048 C 
BRANCH   7  13
ATOM      8 CL   UNL A   1      46.830 -23.137 -40.779  0.00  0.00    -0.084 Cl
ATOM      9  C   UNL A   1      45.693 -21.848 -40.772  0.00  0.00    +0.041 A 
ATOM     10  C   UNL A   1      44.760 -21.736 -41.797  0.00  0.00    -0.043 A 
ATOM     11  C   UNL A   1      43.842 -20.686 -41.783  0.00  0.00    -0.060 A 
ATOM     12  C   UNL A   1      43.861 -19.750 -40.747  0.00  0.00    -0.057 A 
ATOM     13  C   UNL A   1      44.803 -19.851 -39.710  0.00  0.00    -0.026 A 
ATOM     14  C   UNL A   1      45.717 -20.917 -39.730  0.00  0.00    -0.039 A 
ENDBRANCH   7  13
ENDBRANCH   1   7
BRANCH   4  15
ATOM     15  C   UNL A   1      42.288 -20.961 -33.859  0.00  0.00    +0.049 C 
BRANCH  15  16
ATOM     16  N   UNL A   1      41.099 -20.202 -33.486  0.00  0.00    -0.339 N 
ATOM     17  C   UNL A   1      39.826 -20.713 -33.387  0.00  0.00    +0.023 A 
ATOM     18  C   UNL A   1      38.976 -19.685 -33.035  0.00  0.00    -0.019 A 
ATOM     19  C   UNL A   1      39.754 -18.504 -32.906  0.00  0.00    +0.003 A 
ATOM     20  C   UNL A   1      39.449 -17.169 -32.574  0.00  0.00    -0.052 A 
ATOM     21  C   UNL A   1      40.473 -16.220 -32.505  0.00  0.00    -0.061 A 
ATOM     22  C   UNL A   1      41.790 -16.585 -32.758  0.00  0.00    -0.060 A 
ATOM     23  C   UNL A   1      42.121 -17.903 -33.092  0.00  0.00    -0.038 A 
ATOM     24  C   UNL A   1      41.084 -18.851 -33.169  0.00  0.00    +0.050 A 
ATOM     25  C   UNL A   1      37.507 -19.877 -32.841  0.00  0.00    -0.025 C 
ATOM     26  C   UNL A   1      37.161 -21.365 -32.662  0.00  0.00    -0.049 C 
ATOM     27  C   UNL A   1      37.892 -22.250 -33.686  0.00  0.00    -0.047 C 
ATOM     28  C   UNL A   1      39.422 -22.141 -33.564  0.00  0.00    -0.012 C 
ENDBRANCH  15  16
ENDBRANCH   4  15
TORSDOF 4
ENDMDL
