REMARK  Name = cpd300.pdb
REMARK  22 active torsions:
REMARK  status: ('A' for Active; 'I' for Inactive)
REMARK    1  A    between atoms: C_1  and  C_2
REMARK    2  A    between atoms: C_2  and  N_3
REMARK    3  A    between atoms: N_3  and  C_4
REMARK    4  A    between atoms: N_3  and  C_6
REMARK    5  A    between atoms: C_4  and  C_5
REMARK    6  A    between atoms: C_6  and  C_7
REMARK    7  A    between atoms: C_7  and  C_8
REMARK    8  A    between atoms: C_8  and  C_9
REMARK    9  A    between atoms: C_9  and  C_10
REMARK   10  A    between atoms: C_10  and  O_11
REMARK   11  A    between atoms: O_11  and  C_12
REMARK   12  A    between atoms: C_12  and  C_14
REMARK   13  A    between atoms: C_14  and  C_15
REMARK   14  A    between atoms: C_15  and  C_16
REMARK   15  A    between atoms: C_15  and  C_17
REMARK   16  A    between atoms: C_17  and  C_18
REMARK   17  A    between atoms: C_18  and  C_19
REMARK   18  A    between atoms: C_20  and  C_21
REMARK   19  A    between atoms: C_21  and  O_22
REMARK   20  A    between atoms: C_26  and  C_27
REMARK   21  A    between atoms: C_26  and  C_28
REMARK   22  A    between atoms: C_32  and  C_33
REMARK                            x       y       z     vdW  Elec       q    Type
REMARK                         _______ _______ _______ _____ _____    ______ ____
ROOT
ATOM      1  C   UNL     1       1.804  -2.904   1.203  0.00  0.00    -0.049 C 
ENDROOT
BRANCH   1   2
ATOM      2  C   UNL     1       2.490  -4.287   1.342  0.00  0.00    -0.034 C 
ATOM      3  C   UNL     1       3.550  -4.526   0.274  0.00  0.00    -0.062 C 
BRANCH   2   4
ATOM      4  C   UNL     1       1.296  -5.266   1.198  0.00  0.00    +0.048 C 
BRANCH   4   5
ATOM      5  C   UNL     1       1.381  -6.735   1.544  0.00  0.00    +0.307 C 
ATOM      6  O   UNL     1       2.423  -7.304   1.836  0.00  0.00    -0.251 OA
BRANCH   5   7
ATOM      7  O   UNL     1       0.178  -7.408   1.457  0.00  0.00    -0.465 OA
BRANCH   7   8
ATOM      8  C   UNL     1      -1.049  -6.656   1.344  0.00  0.00    +0.092 C 
BRANCH   8   9
ATOM      9  C   UNL     1      -2.286  -7.510   1.064  0.00  0.00    -0.018 C 
BRANCH   9  10
ATOM     10  C   UNL     1      -3.497  -6.566   0.990  0.00  0.00    -0.049 C 
BRANCH  10  11
ATOM     11  C   UNL     1      -4.807  -7.220   0.547  0.00  0.00    -0.040 C 
BRANCH  11  12
ATOM     12  C   UNL     1      -5.923  -6.153   0.516  0.00  0.00    -0.001 C 
BRANCH  12  13
ATOM     13  N   UNL     1      -7.212  -6.597  -0.045  0.00  0.00    -0.303 N 
ATOM     14  H   UNL     1      -7.014  -6.936  -0.987  0.00  0.00    +0.000 HD
BRANCH  13  15
ATOM     15  C   UNL     1      -7.802  -7.707   0.726  0.00  0.00    -0.004 C 
ATOM     16  C   UNL     1      -7.665  -9.010  -0.050  0.00  0.00    -0.052 C 
ENDBRANCH  13  15
BRANCH  13  18
ATOM     17  C   UNL     1      -7.774  -4.374  -1.101  0.00  0.00    -0.052 C 
ATOM     18  C   UNL     1      -8.176  -5.479  -0.128  0.00  0.00    -0.004 C 
ENDBRANCH  13  18
ENDBRANCH  12  13
ENDBRANCH  11  12
ENDBRANCH  10  11
ENDBRANCH   9  10
ENDBRANCH   8   9
ENDBRANCH   7   8
ENDBRANCH   5   7
ENDBRANCH   4   5
ENDBRANCH   2   4
ENDBRANCH   1   2
BRANCH   1  19
ATOM     19  C   UNL     1       2.529  -1.602   0.836  0.00  0.00    -0.046 C 
BRANCH  19  20
ATOM     20  C   UNL     1       1.683  -0.181   0.884  0.00  0.00    -0.012 C 
ATOM     21  C   UNL     1       2.724   0.884   0.490  0.00  0.00    -0.045 C 
ATOM     22  C   UNL     1       2.419   1.645  -0.564  0.00  0.00    -0.082 C 
ATOM     23  C   UNL     1       1.047   1.539  -1.119  0.00  0.00    -0.031 C 
ATOM     24  C   UNL     1       0.000   1.000   0.000  0.00  0.00    -0.027 C 
ATOM     25  C   UNL     1      -1.448   1.710  -0.556  0.00  0.00    -0.031 C 
ATOM     26  C   UNL     1      -1.903   1.107  -1.909  0.00  0.00    -0.060 C 
ATOM     27  C   UNL     1      -1.347   3.252  -0.740  0.00  0.00    -0.060 C 
ATOM     28  C   UNL     1      -2.597   1.528   0.470  0.00  0.00    -0.048 C 
ATOM     29  C   UNL     1      -2.531   0.173   1.111  0.00  0.00    -0.052 C 
ATOM     30  C   UNL     1      -1.075  -0.032   1.487  0.00  0.00    -0.047 C 
ATOM     31  C   UNL     1       0.000   0.000   0.000  0.00  0.00    -0.022 C 
ATOM     32  C   UNL     1       0.000  -1.000   0.000  0.00  0.00    -0.059 C 
BRANCH  21  33
ATOM     33  C   UNL     1       3.981   1.025   1.312  0.00  0.00    +0.066 C 
BRANCH  33  34
ATOM     34  O   UNL     1       4.741   2.162   0.926  0.00  0.00    -0.391 OA
ATOM     35  H   UNL     1       5.011   2.071  -0.001  0.00  0.00    +0.000 HD
ENDBRANCH  33  34
ENDBRANCH  21  33
ENDBRANCH  19  20
ENDBRANCH   1  19
TORSDOF 16
