@<TRIPOS>MOLECULE
*****
 33 34 0 0 0
SMALL
GASTEIGER

@<TRIPOS>ATOM
      1 C          -7.7942   -3.5000    0.0000 C.3     1  UNL1        0.0188
      2 C          -7.7942   -4.5000    0.0000 C.3     1  UNL1        0.0721
      3 N          -6.9282   -5.0000    0.0000 N.3     1  UNL1       -0.2727
      4 C          -6.9282   -6.0000    0.0000 C.3     1  UNL1        0.0721
      5 C          -6.0622   -6.5000    0.0000 C.3     1  UNL1        0.0188
      6 C          -6.0622   -4.5000    0.0000 C.3     1  UNL1        0.0721
      7 C          -5.1962   -5.0000    0.0000 C.3     1  UNL1        0.0174
      8 C          -4.3301   -4.5000    0.0000 C.3     1  UNL1        0.0053
      9 C          -3.4641   -5.0000    0.0000 C.3     1  UNL1        0.0475
     10 C          -2.5981   -4.5000    0.0000 C.3     1  UNL1        0.2084
     11 O          -1.7321   -5.0000    0.0000 O.3     1  UNL1       -0.4485
     12 C          -0.8660   -4.5000    0.0000 C.2     1  UNL1        0.3170
     13 O           0.0000   -5.0000    0.0000 O.2     1  UNL1       -0.2501
     14 C          -0.8660   -3.5000    0.0000 C.3     1  UNL1        0.1096
     15 C           0.0000   -3.0000    0.0000 C.3     1  UNL1        0.0111
     16 C           0.8660   -3.5000    0.0000 C.3     1  UNL1        0.0006
     17 C           0.0000   -2.0000    0.0000 C.3     1  UNL1        0.0009
     18 C           0.8660   -1.5000    0.0000 C.3     1  UNL1        0.0041
     19 C           0.8660   -0.5000    0.0000 C.3     1  UNL1        0.0205
     20 C           1.7321    0.0000    0.0000 C.2     1  UNL1       -0.0162
     21 C           2.5981   -0.5000    0.0000 C.3     1  UNL1        0.2041
     22 O           3.4641    0.0000    0.0000 O.3     1  UNL1       -0.2155
     23 C           1.7321    1.0000    0.0000 C.2     1  UNL1       -0.0321
     24 C           0.8660    1.5000    0.0000 C.3     1  UNL1        0.0255
     25 C          -0.0000    1.0000    0.0000 C.3     1  UNL1        0.0046
     26 C          -0.8660    1.5000    0.0000 C.3     1  UNL1        0.0003
     27 C          -1.3660    2.3660    0.0000 C.3     1  UNL1        0.0000
     28 C          -0.3660    2.3660    0.0000 C.3     1  UNL1        0.0000
     29 C          -1.7321    1.0000    0.0000 C.3     1  UNL1        0.0000
     30 C          -1.7321   -0.0000    0.0000 C.3     1  UNL1        0.0000
     31 C          -0.8660   -0.5000    0.0000 C.3     1  UNL1        0.0003
     32 C           0.0000   -0.0000    0.0000 C.3     1  UNL1        0.0038
     33 C           0.0000   -1.0000    0.0000 C.3     1  UNL1        0.0003
@<TRIPOS>BOND
     1     1     2    1
     2     2     3    1
     3     3     4    1
     4     4     5    1
     5     3     6    1
     6     6     7    1
     7     7     8    1
     8     8     9    1
     9     9    10    1
    10    10    11    1
    11    11    12    1
    12    12    13    2
    13    12    14    1
    14    14    15    1
    15    15    16    1
    16    15    17    1
    17    17    18    1
    18    18    19    1
    19    19    20    1
    20    20    21    1
    21    21    22    1
    22    20    23    2
    23    23    24    1
    24    24    25    1
    25    25    26    1
    26    26    27    1
    27    26    28    1
    28    26    29    1
    29    29    30    1
    30    30    31    1
    31    31    32    1
    32    19    32    1
    33    25    32    1
    34    32    33    1
