MODEL 1
REMARK VINA RESULT:    -5.681      0.000      0.000
REMARK INTER + INTRA:         -13.784
REMARK INTER:                 -10.829
REMARK INTRA:                  -2.955
REMARK UNBOUND:                -2.955
REMARK  Name = cpd300.pdb
REMARK  22 active torsions:
REMARK  status: ('A' for Active; 'I' for Inactive)
REMARK    1  A    between atoms: C_1  and  C_2
REMARK    2  A    between atoms: C_2  and  N_3
REMARK    3  A    between atoms: N_3  and  C_4
REMARK    4  A    between atoms: N_3  and  C_6
REMARK    5  A    between atoms: C_4  and  C_5
REMARK    6  A    between atoms: C_6  and  C_7
REMARK    7  A    between atoms: C_7  and  C_8
REMARK    8  A    between atoms: C_8  and  C_9
REMARK    9  A    between atoms: C_9  and  C_10
REMARK   10  A    between atoms: C_10  and  O_11
REMARK   11  A    between atoms: O_11  and  C_12
REMARK   12  A    between atoms: C_12  and  C_14
REMARK   13  A    between atoms: C_14  and  C_15
REMARK   14  A    between atoms: C_15  and  C_16
REMARK   15  A    between atoms: C_15  and  C_17
REMARK   16  A    between atoms: C_17  and  C_18
REMARK   17  A    between atoms: C_18  and  C_19
REMARK   18  A    between atoms: C_20  and  C_21
REMARK   19  A    between atoms: C_21  and  O_22
REMARK   20  A    between atoms: C_26  and  C_27
REMARK   21  A    between atoms: C_26  and  C_28
REMARK   22  A    between atoms: C_32  and  C_33
REMARK                            x       y       z     vdW  Elec       q    Type
REMARK                         _______ _______ _______ _____ _____    ______ ____
ROOT
ATOM      1  C   UNL     1      41.123 -19.616 -37.457  0.00  0.00    -0.049 C 
ENDROOT
BRANCH   1   2
ATOM      2  C   UNL     1      41.959 -19.755 -36.159  0.00  0.00    -0.034 C 
ATOM      3  C   UNL     1      43.246 -18.941 -36.201  0.00  0.00    -0.062 C 
BRANCH   2   4
ATOM      4  C   UNL     1      42.243 -21.279 -36.109  0.00  0.00    +0.048 C 
BRANCH   4   5
ATOM      5  C   UNL     1      41.282 -22.283 -35.514  0.00  0.00    +0.307 C 
ATOM      6  O   UNL     1      40.753 -23.179 -36.156  0.00  0.00    -0.251 OA
BRANCH   5   7
ATOM      7  O   UNL     1      41.007 -22.078 -34.176  0.00  0.00    -0.465 OA
BRANCH   7   8
ATOM      8  C   UNL     1      39.707 -22.432 -33.657  0.00  0.00    +0.092 C 
BRANCH   8   9
ATOM      9  C   UNL     1      38.973 -21.284 -32.964  0.00  0.00    -0.018 C 
BRANCH   9  10
ATOM     10  C   UNL     1      40.031 -20.275 -32.487  0.00  0.00    -0.049 C 
BRANCH  10  11
ATOM     11  C   UNL     1      39.704 -18.807 -32.766  0.00  0.00    -0.040 C 
BRANCH  11  12
ATOM     12  C   UNL     1      39.089 -18.682 -34.177  0.00  0.00    -0.001 C 
BRANCH  12  13
ATOM     13  N   UNL     1      37.747 -18.075 -34.234  0.00  0.00    -0.303 N 
ATOM     14  H   UNL     1      37.883 -17.101 -34.507  0.00  0.00    +0.000 HD
BRANCH  13  15
ATOM     15  C   UNL     1      36.888 -18.718 -35.245  0.00  0.00    -0.004 C 
ATOM     16  C   UNL     1      37.728 -19.605 -36.154  0.00  0.00    -0.052 C 
ENDBRANCH  13  15
BRANCH  13  18
ATOM     17  C   UNL     1      35.855 -19.023 -32.858  0.00  0.00    -0.052 C 
ATOM     18  C   UNL     1      37.081 -18.116 -32.914  0.00  0.00    -0.004 C 
ENDBRANCH  13  18
ENDBRANCH  12  13
ENDBRANCH  11  12
ENDBRANCH  10  11
ENDBRANCH   9  10
ENDBRANCH   8   9
ENDBRANCH   7   8
ENDBRANCH   5   7
ENDBRANCH   4   5
ENDBRANCH   2   4
ENDBRANCH   1   2
BRANCH   1  19
ATOM     19  C   UNL     1      41.712 -19.535 -38.872  0.00  0.00    -0.046 C 
BRANCH  19  20
ATOM     20  C   UNL     1      42.761 -20.715 -39.364  0.00  0.00    -0.012 C 
ATOM     21  C   UNL     1      41.907 -21.610 -40.283  0.00  0.00    -0.045 C 
ATOM     22  C   UNL     1      42.360 -21.780 -41.527  0.00  0.00    -0.082 C 
ATOM     23  C   UNL     1      43.719 -21.274 -41.843  0.00  0.00    -0.031 C 
ATOM     24  C   UNL     1      44.633 -21.168 -40.504  0.00  0.00    -0.027 C 
ATOM     25  C   UNL     1      46.190 -21.377 -41.169  0.00  0.00    -0.031 C 
ATOM     26  C   UNL     1      46.595 -20.185 -42.072  0.00  0.00    -0.060 C 
ATOM     27  C   UNL     1      46.330 -22.675 -42.015  0.00  0.00    -0.060 C 
ATOM     28  C   UNL     1      47.262 -21.534 -40.059  0.00  0.00    -0.048 C 
ATOM     29  C   UNL     1      46.969 -20.624 -38.901  0.00  0.00    -0.052 C 
ATOM     30  C   UNL     1      45.487 -20.785 -38.619  0.00  0.00    -0.047 C 
ATOM     31  C   UNL     1      44.482 -20.280 -40.069  0.00  0.00    -0.022 C 
ATOM     32  C   UNL     1      44.330 -19.393 -39.634  0.00  0.00    -0.059 C 
BRANCH  21  33
ATOM     33  C   UNL     1      40.658 -22.252 -39.732  0.00  0.00    +0.066 C 
BRANCH  33  34
ATOM     34  O   UNL     1      40.950 -23.431 -38.995  0.00  0.00    -0.391 OA
ATOM     35  H   UNL     1      40.150 -23.976 -38.926  0.00  0.00    +0.000 HD
ENDBRANCH  33  34
ENDBRANCH  21  33
ENDBRANCH  19  20
ENDBRANCH   1  19
TORSDOF 16
ENDMDL
MODEL 2
REMARK VINA RESULT:    -5.666      2.893      8.058
REMARK INTER + INTRA:         -13.755
REMARK INTER:                 -10.839
REMARK INTRA:                  -2.916
REMARK UNBOUND:                -2.955
REMARK  Name = cpd300.pdb
REMARK  22 active torsions:
REMARK  status: ('A' for Active; 'I' for Inactive)
REMARK    1  A    between atoms: C_1  and  C_2
REMARK    2  A    between atoms: C_2  and  N_3
REMARK    3  A    between atoms: N_3  and  C_4
REMARK    4  A    between atoms: N_3  and  C_6
REMARK    5  A    between atoms: C_4  and  C_5
REMARK    6  A    between atoms: C_6  and  C_7
REMARK    7  A    between atoms: C_7  and  C_8
REMARK    8  A    between atoms: C_8  and  C_9
REMARK    9  A    between atoms: C_9  and  C_10
REMARK   10  A    between atoms: C_10  and  O_11
REMARK   11  A    between atoms: O_11  and  C_12
REMARK   12  A    between atoms: C_12  and  C_14
REMARK   13  A    between atoms: C_14  and  C_15
REMARK   14  A    between atoms: C_15  and  C_16
REMARK   15  A    between atoms: C_15  and  C_17
REMARK   16  A    between atoms: C_17  and  C_18
REMARK   17  A    between atoms: C_18  and  C_19
REMARK   18  A    between atoms: C_20  and  C_21
REMARK   19  A    between atoms: C_21  and  O_22
REMARK   20  A    between atoms: C_26  and  C_27
REMARK   21  A    between atoms: C_26  and  C_28
REMARK   22  A    between atoms: C_32  and  C_33
REMARK                            x       y       z     vdW  Elec       q    Type
REMARK                         _______ _______ _______ _____ _____    ______ ____
ROOT
ATOM      1  C   UNL     1      44.031 -20.741 -38.259  0.00  0.00    -0.049 C 
ENDROOT
BRANCH   1   2
ATOM      2  C   UNL     1      43.316 -20.960 -39.616  0.00  0.00    -0.034 C 
ATOM      3  C   UNL     1      42.060 -21.813 -39.487  0.00  0.00    -0.062 C 
BRANCH   2   4
ATOM      4  C   UNL     1      44.409 -21.669 -40.457  0.00  0.00    +0.048 C 
BRANCH   4   5
ATOM      5  C   UNL     1      44.640 -21.389 -41.924  0.00  0.00    +0.307 C 
ATOM      6  O   UNL     1      45.175 -22.178 -42.690  0.00  0.00    -0.251 OA
BRANCH   5   7
ATOM      7  O   UNL     1      44.235 -20.133 -42.332  0.00  0.00    -0.465 OA
BRANCH   7   8
ATOM      8  C   UNL     1      45.015 -18.979 -41.952  0.00  0.00    +0.092 C 
BRANCH   8   9
ATOM      9  C   UNL     1      44.186 -17.805 -41.430  0.00  0.00    -0.018 C 
BRANCH   9  10
ATOM     10  C   UNL     1      45.008 -17.103 -40.337  0.00  0.00    -0.049 C 
BRANCH  10  11
ATOM     11  C   UNL     1      44.295 -16.931 -38.994  0.00  0.00    -0.040 C 
BRANCH  11  12
ATOM     12  C   UNL     1      45.307 -16.427 -37.942  0.00  0.00    -0.001 C 
BRANCH  12  13
ATOM     13  N   UNL     1      45.840 -17.453 -37.029  0.00  0.00    -0.303 N 
ATOM     14  H   UNL     1      45.244 -18.274 -37.139  0.00  0.00    +0.000 HD
BRANCH  13  15
ATOM     15  C   UNL     1      47.221 -17.842 -37.373  0.00  0.00    -0.004 C 
ATOM     16  C   UNL     1      47.239 -19.260 -37.927  0.00  0.00    -0.052 C 
ENDBRANCH  13  15
BRANCH  13  18
ATOM     17  C   UNL     1      44.389 -16.612 -35.142  0.00  0.00    -0.052 C 
ATOM     18  C   UNL     1      45.785 -17.003 -35.622  0.00  0.00    -0.004 C 
ENDBRANCH  13  18
ENDBRANCH  12  13
ENDBRANCH  11  12
ENDBRANCH  10  11
ENDBRANCH   9  10
ENDBRANCH   8   9
ENDBRANCH   7   8
ENDBRANCH   5   7
ENDBRANCH   4   5
ENDBRANCH   2   4
ENDBRANCH   1   2
BRANCH   1  19
ATOM     19  C   UNL     1      43.442 -19.957 -37.078  0.00  0.00    -0.046 C 
BRANCH  19  20
ATOM     20  C   UNL     1      42.813 -20.800 -35.800  0.00  0.00    -0.012 C 
ATOM     21  C   UNL     1      43.626 -20.300 -34.590  0.00  0.00    -0.045 C 
ATOM     22  C   UNL     1      42.923 -19.777 -33.583  0.00  0.00    -0.082 C 
ATOM     23  C   UNL     1      41.446 -19.912 -33.628  0.00  0.00    -0.031 C 
ATOM     24  C   UNL     1      40.998 -21.176 -34.546  0.00  0.00    -0.027 C 
ATOM     25  C   UNL     1      39.510 -21.582 -33.818  0.00  0.00    -0.031 C 
ATOM     26  C   UNL     1      38.442 -20.481 -34.037  0.00  0.00    -0.060 C 
ATOM     27  C   UNL     1      39.621 -21.829 -32.286  0.00  0.00    -0.060 C 
ATOM     28  C   UNL     1      38.954 -22.918 -34.376  0.00  0.00    -0.048 C 
ATOM     29  C   UNL     1      39.214 -23.032 -35.849  0.00  0.00    -0.052 C 
ATOM     30  C   UNL     1      40.662 -22.618 -36.042  0.00  0.00    -0.047 C 
ATOM     31  C   UNL     1      40.929 -20.885 -35.500  0.00  0.00    -0.022 C 
ATOM     32  C   UNL     1      40.860 -20.594 -36.454  0.00  0.00    -0.059 C 
BRANCH  21  33
ATOM     33  C   UNL     1      45.127 -20.453 -34.598  0.00  0.00    +0.066 C 
BRANCH  33  34
ATOM     34  O   UNL     1      45.571 -21.359 -33.598  0.00  0.00    -0.391 OA
ATOM     35  H   UNL     1      45.451 -22.269 -33.910  0.00  0.00    +0.000 HD
ENDBRANCH  33  34
ENDBRANCH  21  33
ENDBRANCH  19  20
ENDBRANCH   1  19
TORSDOF 16
ENDMDL
MODEL 3
REMARK VINA RESULT:    -5.631     16.081     19.327
REMARK INTER + INTRA:         -13.688
REMARK INTER:                 -11.480
REMARK INTRA:                  -2.208
REMARK UNBOUND:                -2.955
REMARK  Name = cpd300.pdb
REMARK  22 active torsions:
REMARK  status: ('A' for Active; 'I' for Inactive)
REMARK    1  A    between atoms: C_1  and  C_2
REMARK    2  A    between atoms: C_2  and  N_3
REMARK    3  A    between atoms: N_3  and  C_4
REMARK    4  A    between atoms: N_3  and  C_6
REMARK    5  A    between atoms: C_4  and  C_5
REMARK    6  A    between atoms: C_6  and  C_7
REMARK    7  A    between atoms: C_7  and  C_8
REMARK    8  A    between atoms: C_8  and  C_9
REMARK    9  A    between atoms: C_9  and  C_10
REMARK   10  A    between atoms: C_10  and  O_11
REMARK   11  A    between atoms: O_11  and  C_12
REMARK   12  A    between atoms: C_12  and  C_14
REMARK   13  A    between atoms: C_14  and  C_15
REMARK   14  A    between atoms: C_15  and  C_16
REMARK   15  A    between atoms: C_15  and  C_17
REMARK   16  A    between atoms: C_17  and  C_18
REMARK   17  A    between atoms: C_18  and  C_19
REMARK   18  A    between atoms: C_20  and  C_21
REMARK   19  A    between atoms: C_21  and  O_22
REMARK   20  A    between atoms: C_26  and  C_27
REMARK   21  A    between atoms: C_26  and  C_28
REMARK   22  A    between atoms: C_32  and  C_33
REMARK                            x       y       z     vdW  Elec       q    Type
REMARK                         _______ _______ _______ _____ _____    ______ ____
ROOT
ATOM      1  C   UNL     1      33.991 -34.894 -29.069  0.00  0.00    -0.049 C 
ENDROOT
BRANCH   1   2
ATOM      2  C   UNL     1      32.798 -35.873 -28.927  0.00  0.00    -0.034 C 
ATOM      3  C   UNL     1      32.419 -36.129 -27.474  0.00  0.00    -0.062 C 
BRANCH   2   4
ATOM      4  C   UNL     1      33.336 -37.154 -29.616  0.00  0.00    +0.048 C 
BRANCH   4   5
ATOM      5  C   UNL     1      34.182 -37.130 -30.869  0.00  0.00    +0.307 C 
ATOM      6  O   UNL     1      33.722 -37.017 -31.996  0.00  0.00    -0.251 OA
BRANCH   5   7
ATOM      7  O   UNL     1      35.534 -37.296 -30.642  0.00  0.00    -0.465 OA
BRANCH   7   8
ATOM      8  C   UNL     1      35.974 -38.019 -29.473  0.00  0.00    +0.092 C 
BRANCH   8   9
ATOM      9  C   UNL     1      37.035 -37.292 -28.646  0.00  0.00    -0.018 C 
BRANCH   9  10
ATOM     10  C   UNL     1      37.982 -38.354 -28.066  0.00  0.00    -0.049 C 
BRANCH  10  11
ATOM     11  C   UNL     1      39.471 -38.011 -28.144  0.00  0.00    -0.040 C 
BRANCH  11  12
ATOM     12  C   UNL     1      39.921 -38.034 -29.621  0.00  0.00    -0.001 C 
BRANCH  12  13
ATOM     13  N   UNL     1      41.171 -37.310 -29.916  0.00  0.00    -0.303 N 
ATOM     14  H   UNL     1      41.568 -37.042 -29.014  0.00  0.00    +0.000 HD
BRANCH  13  15
ATOM     15  C   UNL     1      42.155 -38.160 -30.613  0.00  0.00    -0.004 C 
ATOM     16  C   UNL     1      42.990 -37.314 -31.566  0.00  0.00    -0.052 C 
ENDBRANCH  13  15
BRANCH  13  18
ATOM     17  C   UNL     1      39.473 -35.954 -31.200  0.00  0.00    -0.052 C 
ATOM     18  C   UNL     1      40.913 -36.091 -30.711  0.00  0.00    -0.004 C 
ENDBRANCH  13  18
ENDBRANCH  12  13
ENDBRANCH  11  12
ENDBRANCH  10  11
ENDBRANCH   9  10
ENDBRANCH   8   9
ENDBRANCH   7   8
ENDBRANCH   5   7
ENDBRANCH   4   5
ENDBRANCH   2   4
ENDBRANCH   1   2
BRANCH   1  19
ATOM     19  C   UNL     1      33.882 -33.365 -28.988  0.00  0.00    -0.046 C 
BRANCH  19  20
ATOM     20  C   UNL     1      32.921 -32.579 -30.082  0.00  0.00    -0.012 C 
ATOM     21  C   UNL     1      33.203 -33.303 -31.412  0.00  0.00    -0.045 C 
ATOM     22  C   UNL     1      32.144 -33.825 -32.035  0.00  0.00    -0.082 C 
ATOM     23  C   UNL     1      30.798 -33.488 -31.510  0.00  0.00    -0.031 C 
ATOM     24  C   UNL     1      30.822 -32.089 -30.684  0.00  0.00    -0.027 C 
ATOM     25  C   UNL     1      29.216 -31.561 -30.912  0.00  0.00    -0.031 C 
ATOM     26  C   UNL     1      28.199 -32.480 -30.189  0.00  0.00    -0.060 C 
ATOM     27  C   UNL     1      28.799 -31.487 -32.409  0.00  0.00    -0.060 C 
ATOM     28  C   UNL     1      29.018 -30.113 -30.394  0.00  0.00    -0.048 C 
ATOM     29  C   UNL     1      29.793 -29.888 -29.129  0.00  0.00    -0.052 C 
ATOM     30  C   UNL     1      31.171 -30.472 -29.383  0.00  0.00    -0.047 C 
ATOM     31  C   UNL     1      31.069 -32.270 -29.732  0.00  0.00    -0.022 C 
ATOM     32  C   UNL     1      31.317 -32.451 -28.780  0.00  0.00    -0.059 C 
BRANCH  21  33
ATOM     33  C   UNL     1      34.616 -33.355 -31.937  0.00  0.00    +0.066 C 
BRANCH  33  34
ATOM     34  O   UNL     1      35.164 -32.056 -32.111  0.00  0.00    -0.391 OA
ATOM     35  H   UNL     1      35.548 -31.983 -32.999  0.00  0.00    +0.000 HD
ENDBRANCH  33  34
ENDBRANCH  21  33
ENDBRANCH  19  20
ENDBRANCH   1  19
TORSDOF 16
ENDMDL
MODEL 4
REMARK VINA RESULT:    -5.589      2.867      7.644
REMARK INTER + INTRA:         -13.609
REMARK INTER:                 -10.475
REMARK INTRA:                  -3.135
REMARK UNBOUND:                -2.955
REMARK  Name = cpd300.pdb
REMARK  22 active torsions:
REMARK  status: ('A' for Active; 'I' for Inactive)
REMARK    1  A    between atoms: C_1  and  C_2
REMARK    2  A    between atoms: C_2  and  N_3
REMARK    3  A    between atoms: N_3  and  C_4
REMARK    4  A    between atoms: N_3  and  C_6
REMARK    5  A    between atoms: C_4  and  C_5
REMARK    6  A    between atoms: C_6  and  C_7
REMARK    7  A    between atoms: C_7  and  C_8
REMARK    8  A    between atoms: C_8  and  C_9
REMARK    9  A    between atoms: C_9  and  C_10
REMARK   10  A    between atoms: C_10  and  O_11
REMARK   11  A    between atoms: O_11  and  C_12
REMARK   12  A    between atoms: C_12  and  C_14
REMARK   13  A    between atoms: C_14  and  C_15
REMARK   14  A    between atoms: C_15  and  C_16
REMARK   15  A    between atoms: C_15  and  C_17
REMARK   16  A    between atoms: C_17  and  C_18
REMARK   17  A    between atoms: C_18  and  C_19
REMARK   18  A    between atoms: C_20  and  C_21
REMARK   19  A    between atoms: C_21  and  O_22
REMARK   20  A    between atoms: C_26  and  C_27
REMARK   21  A    between atoms: C_26  and  C_28
REMARK   22  A    between atoms: C_32  and  C_33
REMARK                            x       y       z     vdW  Elec       q    Type
REMARK                         _______ _______ _______ _____ _____    ______ ____
ROOT
ATOM      1  C   UNL     1      44.769 -20.827 -38.428  0.00  0.00    -0.049 C 
ENDROOT
BRANCH   1   2
ATOM      2  C   UNL     1      46.297 -21.077 -38.495  0.00  0.00    -0.034 C 
ATOM      3  C   UNL     1      47.104 -19.785 -38.506  0.00  0.00    -0.062 C 
BRANCH   2   4
ATOM      4  C   UNL     1      46.447 -21.862 -39.824  0.00  0.00    +0.048 C 
BRANCH   4   5
ATOM      5  C   UNL     1      46.548 -21.193 -41.176  0.00  0.00    +0.307 C 
ATOM      6  O   UNL     1      47.590 -20.752 -41.639  0.00  0.00    -0.251 OA
BRANCH   5   7
ATOM      7  O   UNL     1      45.342 -21.072 -41.839  0.00  0.00    -0.465 OA
BRANCH   7   8
ATOM      8  C   UNL     1      44.958 -19.793 -42.387  0.00  0.00    +0.092 C 
BRANCH   8   9
ATOM      9  C   UNL     1      44.252 -18.870 -41.393  0.00  0.00    -0.018 C 
BRANCH   9  10
ATOM     10  C   UNL     1      45.185 -17.680 -41.118  0.00  0.00    -0.049 C 
BRANCH  10  11
ATOM     11  C   UNL     1      44.939 -16.951 -39.796  0.00  0.00    -0.040 C 
BRANCH  11  12
ATOM     12  C   UNL     1      43.591 -16.201 -39.871  0.00  0.00    -0.001 C 
BRANCH  12  13
ATOM     13  N   UNL     1      42.932 -15.947 -38.578  0.00  0.00    -0.303 N 
ATOM     14  H   UNL     1      42.350 -15.119 -38.709  0.00  0.00    +0.000 HD
BRANCH  13  15
ATOM     15  C   UNL     1      42.056 -17.061 -38.171  0.00  0.00    -0.004 C 
ATOM     16  C   UNL     1      41.130 -17.441 -39.319  0.00  0.00    -0.052 C 
ENDBRANCH  13  15
BRANCH  13  18
ATOM     17  C   UNL     1      43.754 -16.538 -36.265  0.00  0.00    -0.052 C 
ATOM     18  C   UNL     1      43.922 -15.676 -37.513  0.00  0.00    -0.004 C 
ENDBRANCH  13  18
ENDBRANCH  12  13
ENDBRANCH  11  12
ENDBRANCH  10  11
ENDBRANCH   9  10
ENDBRANCH   8   9
ENDBRANCH   7   8
ENDBRANCH   5   7
ENDBRANCH   4   5
ENDBRANCH   2   4
ENDBRANCH   1   2
BRANCH   1  19
ATOM     19  C   UNL     1      44.070 -19.967 -37.366  0.00  0.00    -0.046 C 
BRANCH  19  20
ATOM     20  C   UNL     1      43.262 -20.725 -36.137  0.00  0.00    -0.012 C 
ATOM     21  C   UNL     1      43.941 -20.190 -34.861  0.00  0.00    -0.045 C 
ATOM     22  C   UNL     1      43.141 -19.596 -33.972  0.00  0.00    -0.082 C 
ATOM     23  C   UNL     1      41.676 -19.687 -34.192  0.00  0.00    -0.031 C 
ATOM     24  C   UNL     1      41.296 -20.981 -35.098  0.00  0.00    -0.027 C 
ATOM     25  C   UNL     1      39.717 -21.303 -34.539  0.00  0.00    -0.031 C 
ATOM     26  C   UNL     1      38.725 -20.182 -34.938  0.00  0.00    -0.060 C 
ATOM     27  C   UNL     1      39.633 -21.477 -32.995  0.00  0.00    -0.060 C 
ATOM     28  C   UNL     1      39.184 -22.648 -35.099  0.00  0.00    -0.048 C 
ATOM     29  C   UNL     1      39.615 -22.843 -36.522  0.00  0.00    -0.052 C 
ATOM     30  C   UNL     1      41.090 -22.485 -36.556  0.00  0.00    -0.047 C 
ATOM     31  C   UNL     1      41.354 -20.736 -36.066  0.00  0.00    -0.022 C 
ATOM     32  C   UNL     1      41.411 -20.492 -37.034  0.00  0.00    -0.059 C 
BRANCH  21  33
ATOM     33  C   UNL     1      45.425 -20.389 -34.678  0.00  0.00    +0.066 C 
BRANCH  33  34
ATOM     34  O   UNL     1      45.710 -21.337 -33.658  0.00  0.00    -0.391 OA
ATOM     35  H   UNL     1      46.379 -21.963 -33.976  0.00  0.00    +0.000 HD
ENDBRANCH  33  34
ENDBRANCH  21  33
ENDBRANCH  19  20
ENDBRANCH   1  19
TORSDOF 16
ENDMDL
MODEL 5
REMARK VINA RESULT:    -5.508      1.642      2.524
REMARK INTER + INTRA:         -13.455
REMARK INTER:                 -11.106
REMARK INTRA:                  -2.349
REMARK UNBOUND:                -2.955
REMARK  Name = cpd300.pdb
REMARK  22 active torsions:
REMARK  status: ('A' for Active; 'I' for Inactive)
REMARK    1  A    between atoms: C_1  and  C_2
REMARK    2  A    between atoms: C_2  and  N_3
REMARK    3  A    between atoms: N_3  and  C_4
REMARK    4  A    between atoms: N_3  and  C_6
REMARK    5  A    between atoms: C_4  and  C_5
REMARK    6  A    between atoms: C_6  and  C_7
REMARK    7  A    between atoms: C_7  and  C_8
REMARK    8  A    between atoms: C_8  and  C_9
REMARK    9  A    between atoms: C_9  and  C_10
REMARK   10  A    between atoms: C_10  and  O_11
REMARK   11  A    between atoms: O_11  and  C_12
REMARK   12  A    between atoms: C_12  and  C_14
REMARK   13  A    between atoms: C_14  and  C_15
REMARK   14  A    between atoms: C_15  and  C_16
REMARK   15  A    between atoms: C_15  and  C_17
REMARK   16  A    between atoms: C_17  and  C_18
REMARK   17  A    between atoms: C_18  and  C_19
REMARK   18  A    between atoms: C_20  and  C_21
REMARK   19  A    between atoms: C_21  and  O_22
REMARK   20  A    between atoms: C_26  and  C_27
REMARK   21  A    between atoms: C_26  and  C_28
REMARK   22  A    between atoms: C_32  and  C_33
REMARK                            x       y       z     vdW  Elec       q    Type
REMARK                         _______ _______ _______ _____ _____    ______ ____
ROOT
ATOM      1  C   UNL     1      41.983 -19.375 -37.059  0.00  0.00    -0.049 C 
ENDROOT
BRANCH   1   2
ATOM      2  C   UNL     1      42.800 -18.282 -36.322  0.00  0.00    -0.034 C 
ATOM      3  C   UNL     1      43.103 -17.079 -37.207  0.00  0.00    -0.062 C 
BRANCH   2   4
ATOM      4  C   UNL     1      44.090 -19.043 -35.923  0.00  0.00    +0.048 C 
BRANCH   4   5
ATOM      5  C   UNL     1      44.325 -19.613 -34.543  0.00  0.00    +0.307 C 
ATOM      6  O   UNL     1      45.435 -19.805 -34.067  0.00  0.00    -0.251 OA
BRANCH   5   7
ATOM      7  O   UNL     1      43.169 -19.950 -33.865  0.00  0.00    -0.465 OA
BRANCH   7   8
ATOM      8  C   UNL     1      42.777 -19.184 -32.706  0.00  0.00    +0.092 C 
BRANCH   8   9
ATOM      9  C   UNL     1      41.708 -18.127 -32.984  0.00  0.00    -0.018 C 
BRANCH   9  10
ATOM     10  C   UNL     1      40.335 -18.782 -32.760  0.00  0.00    -0.049 C 
BRANCH  10  11
ATOM     11  C   UNL     1      39.757 -19.515 -33.972  0.00  0.00    -0.040 C 
BRANCH  11  12
ATOM     12  C   UNL     1      39.636 -21.020 -33.646  0.00  0.00    -0.001 C 
BRANCH  12  13
ATOM     13  N   UNL     1      38.377 -21.662 -34.065  0.00  0.00    -0.303 N 
ATOM     14  H   UNL     1      37.967 -21.055 -34.775  0.00  0.00    +0.000 HD
BRANCH  13  15
ATOM     15  C   UNL     1      38.603 -22.987 -34.671  0.00  0.00    -0.004 C 
ATOM     16  C   UNL     1      38.464 -24.074 -33.613  0.00  0.00    -0.052 C 
ENDBRANCH  13  15
BRANCH  13  18
ATOM     17  C   UNL     1      36.426 -20.644 -32.828  0.00  0.00    -0.052 C 
ATOM     18  C   UNL     1      37.434 -21.785 -32.933  0.00  0.00    -0.004 C 
ENDBRANCH  13  18
ENDBRANCH  12  13
ENDBRANCH  11  12
ENDBRANCH  10  11
ENDBRANCH   9  10
ENDBRANCH   8   9
ENDBRANCH   7   8
ENDBRANCH   5   7
ENDBRANCH   4   5
ENDBRANCH   2   4
ENDBRANCH   1   2
BRANCH   1  19
ATOM     19  C   UNL     1      41.990 -19.595 -38.577  0.00  0.00    -0.046 C 
BRANCH  19  20
ATOM     20  C   UNL     1      42.960 -20.780 -39.203  0.00  0.00    -0.012 C 
ATOM     21  C   UNL     1      41.995 -21.652 -40.028  0.00  0.00    -0.045 C 
ATOM     22  C   UNL     1      42.299 -21.809 -41.319  0.00  0.00    -0.082 C 
ATOM     23  C   UNL     1      43.618 -21.314 -41.784  0.00  0.00    -0.031 C 
ATOM     24  C   UNL     1      44.682 -21.237 -40.558  0.00  0.00    -0.027 C 
ATOM     25  C   UNL     1      46.149 -21.454 -41.401  0.00  0.00    -0.031 C 
ATOM     26  C   UNL     1      46.462 -20.254 -42.330  0.00  0.00    -0.060 C 
ATOM     27  C   UNL     1      46.174 -22.742 -42.275  0.00  0.00    -0.060 C 
ATOM     28  C   UNL     1      47.340 -21.639 -40.425  0.00  0.00    -0.048 C 
ATOM     29  C   UNL     1      47.195 -20.743 -39.230  0.00  0.00    -0.052 C 
ATOM     30  C   UNL     1      45.753 -20.891 -38.780  0.00  0.00    -0.047 C 
ATOM     31  C   UNL     1      44.593 -20.355 -40.097  0.00  0.00    -0.022 C 
ATOM     32  C   UNL     1      44.505 -19.472 -39.635  0.00  0.00    -0.059 C 
BRANCH  21  33
ATOM     33  C   UNL     1      40.810 -22.288 -39.345  0.00  0.00    +0.066 C 
BRANCH  33  34
ATOM     34  O   UNL     1      40.575 -23.609 -39.814  0.00  0.00    -0.391 OA
ATOM     35  H   UNL     1      40.244 -23.575 -40.725  0.00  0.00    +0.000 HD
ENDBRANCH  33  34
ENDBRANCH  21  33
ENDBRANCH  19  20
ENDBRANCH   1  19
TORSDOF 16
ENDMDL
MODEL 6
REMARK VINA RESULT:    -5.489      2.573      5.053
REMARK INTER + INTRA:         -13.418
REMARK INTER:                  -9.767
REMARK INTRA:                  -3.651
REMARK UNBOUND:                -2.955
REMARK  Name = cpd300.pdb
REMARK  22 active torsions:
REMARK  status: ('A' for Active; 'I' for Inactive)
REMARK    1  A    between atoms: C_1  and  C_2
REMARK    2  A    between atoms: C_2  and  N_3
REMARK    3  A    between atoms: N_3  and  C_4
REMARK    4  A    between atoms: N_3  and  C_6
REMARK    5  A    between atoms: C_4  and  C_5
REMARK    6  A    between atoms: C_6  and  C_7
REMARK    7  A    between atoms: C_7  and  C_8
REMARK    8  A    between atoms: C_8  and  C_9
REMARK    9  A    between atoms: C_9  and  C_10
REMARK   10  A    between atoms: C_10  and  O_11
REMARK   11  A    between atoms: O_11  and  C_12
REMARK   12  A    between atoms: C_12  and  C_14
REMARK   13  A    between atoms: C_14  and  C_15
REMARK   14  A    between atoms: C_15  and  C_16
REMARK   15  A    between atoms: C_15  and  C_17
REMARK   16  A    between atoms: C_17  and  C_18
REMARK   17  A    between atoms: C_18  and  C_19
REMARK   18  A    between atoms: C_20  and  C_21
REMARK   19  A    between atoms: C_21  and  O_22
REMARK   20  A    between atoms: C_26  and  C_27
REMARK   21  A    between atoms: C_26  and  C_28
REMARK   22  A    between atoms: C_32  and  C_33
REMARK                            x       y       z     vdW  Elec       q    Type
REMARK                         _______ _______ _______ _____ _____    ______ ____
ROOT
ATOM      1  C   UNL     1      41.639 -19.216 -37.217  0.00  0.00    -0.049 C 
ENDROOT
BRANCH   1   2
ATOM      2  C   UNL     1      40.709 -19.995 -36.252  0.00  0.00    -0.034 C 
ATOM      3  C   UNL     1      39.275 -20.079 -36.760  0.00  0.00    -0.062 C 
BRANCH   2   4
ATOM      4  C   UNL     1      40.811 -19.163 -34.948  0.00  0.00    +0.048 C 
BRANCH   4   5
ATOM      5  C   UNL     1      41.580 -19.620 -33.729  0.00  0.00    +0.307 C 
ATOM      6  O   UNL     1      41.365 -19.209 -32.598  0.00  0.00    -0.251 OA
BRANCH   5   7
ATOM      7  O   UNL     1      42.593 -20.518 -34.003  0.00  0.00    -0.465 OA
BRANCH   7   8
ATOM      8  C   UNL     1      43.968 -20.087 -33.910  0.00  0.00    +0.092 C 
BRANCH   8   9
ATOM      9  C   UNL     1      44.689 -19.993 -35.255  0.00  0.00    -0.018 C 
BRANCH   9  10
ATOM     10  C   UNL     1      45.011 -18.512 -35.510  0.00  0.00    -0.049 C 
BRANCH  10  11
ATOM     11  C   UNL     1      46.422 -18.232 -36.031  0.00  0.00    -0.040 C 
BRANCH  11  12
ATOM     12  C   UNL     1      46.492 -16.782 -36.556  0.00  0.00    -0.001 C 
BRANCH  12  13
ATOM     13  N   UNL     1      46.065 -16.590 -37.954  0.00  0.00    -0.303 N 
ATOM     14  H   UNL     1      45.594 -17.452 -38.231  0.00  0.00    +0.000 HD
BRANCH  13  15
ATOM     15  C   UNL     1      45.106 -15.479 -38.096  0.00  0.00    -0.004 C 
ATOM     16  C   UNL     1      43.692 -16.026 -38.232  0.00  0.00    -0.052 C 
ENDBRANCH  13  15
BRANCH  13  18
ATOM     17  C   UNL     1      47.071 -16.970 -40.238  0.00  0.00    -0.052 C 
ATOM     18  C   UNL     1      47.224 -16.367 -38.844  0.00  0.00    -0.004 C 
ENDBRANCH  13  18
ENDBRANCH  12  13
ENDBRANCH  11  12
ENDBRANCH  10  11
ENDBRANCH   9  10
ENDBRANCH   8   9
ENDBRANCH   7   8
ENDBRANCH   5   7
ENDBRANCH   4   5
ENDBRANCH   2   4
ENDBRANCH   1   2
BRANCH   1  19
ATOM     19  C   UNL     1      41.745 -19.472 -38.726  0.00  0.00    -0.046 C 
BRANCH  19  20
ATOM     20  C   UNL     1      42.769 -20.657 -39.261  0.00  0.00    -0.012 C 
ATOM     21  C   UNL     1      41.869 -21.563 -40.123  0.00  0.00    -0.045 C 
ATOM     22  C   UNL     1      42.256 -21.746 -41.388  0.00  0.00    -0.082 C 
ATOM     23  C   UNL     1      43.596 -21.242 -41.780  0.00  0.00    -0.031 C 
ATOM     24  C   UNL     1      44.579 -21.120 -40.493  0.00  0.00    -0.027 C 
ATOM     25  C   UNL     1      46.099 -21.333 -41.236  0.00  0.00    -0.031 C 
ATOM     26  C   UNL     1      46.454 -20.151 -42.173  0.00  0.00    -0.060 C 
ATOM     27  C   UNL     1      46.196 -22.641 -42.075  0.00  0.00    -0.060 C 
ATOM     28  C   UNL     1      47.228 -21.477 -40.183  0.00  0.00    -0.048 C 
ATOM     29  C   UNL     1      46.996 -20.555 -39.022  0.00  0.00    -0.052 C 
ATOM     30  C   UNL     1      45.530 -20.715 -38.659  0.00  0.00    -0.047 C 
ATOM     31  C   UNL     1      44.449 -20.228 -40.060  0.00  0.00    -0.022 C 
ATOM     32  C   UNL     1      44.319 -19.336 -39.627  0.00  0.00    -0.059 C 
BRANCH  21  33
ATOM     33  C   UNL     1      40.652 -22.201 -39.500  0.00  0.00    +0.066 C 
BRANCH  33  34
ATOM     34  O   UNL     1      40.991 -23.000 -38.375  0.00  0.00    -0.391 OA
ATOM     35  H   UNL     1      41.269 -22.427 -37.643  0.00  0.00    +0.000 HD
ENDBRANCH  33  34
ENDBRANCH  21  33
ENDBRANCH  19  20
ENDBRANCH   1  19
TORSDOF 16
ENDMDL
MODEL 7
REMARK VINA RESULT:    -5.475     16.674     20.102
REMARK INTER + INTRA:         -13.391
REMARK INTER:                 -10.627
REMARK INTRA:                  -2.764
REMARK UNBOUND:                -2.955
REMARK  Name = cpd300.pdb
REMARK  22 active torsions:
REMARK  status: ('A' for Active; 'I' for Inactive)
REMARK    1  A    between atoms: C_1  and  C_2
REMARK    2  A    between atoms: C_2  and  N_3
REMARK    3  A    between atoms: N_3  and  C_4
REMARK    4  A    between atoms: N_3  and  C_6
REMARK    5  A    between atoms: C_4  and  C_5
REMARK    6  A    between atoms: C_6  and  C_7
REMARK    7  A    between atoms: C_7  and  C_8
REMARK    8  A    between atoms: C_8  and  C_9
REMARK    9  A    between atoms: C_9  and  C_10
REMARK   10  A    between atoms: C_10  and  O_11
REMARK   11  A    between atoms: O_11  and  C_12
REMARK   12  A    between atoms: C_12  and  C_14
REMARK   13  A    between atoms: C_14  and  C_15
REMARK   14  A    between atoms: C_15  and  C_16
REMARK   15  A    between atoms: C_15  and  C_17
REMARK   16  A    between atoms: C_17  and  C_18
REMARK   17  A    between atoms: C_18  and  C_19
REMARK   18  A    between atoms: C_20  and  C_21
REMARK   19  A    between atoms: C_21  and  O_22
REMARK   20  A    between atoms: C_26  and  C_27
REMARK   21  A    between atoms: C_26  and  C_28
REMARK   22  A    between atoms: C_32  and  C_33
REMARK                            x       y       z     vdW  Elec       q    Type
REMARK                         _______ _______ _______ _____ _____    ______ ____
ROOT
ATOM      1  C   UNL     1      36.307 -35.953 -29.581  0.00  0.00    -0.049 C 
ENDROOT
BRANCH   1   2
ATOM      2  C   UNL     1      37.512 -36.928 -29.586  0.00  0.00    -0.034 C 
ATOM      3  C   UNL     1      38.440 -36.708 -30.774  0.00  0.00    -0.062 C 
BRANCH   2   4
ATOM      4  C   UNL     1      36.817 -38.314 -29.647  0.00  0.00    +0.048 C 
BRANCH   4   5
ATOM      5  C   UNL     1      36.699 -39.236 -28.455  0.00  0.00    +0.307 C 
ATOM      6  O   UNL     1      37.314 -40.288 -28.348  0.00  0.00    -0.251 OA
BRANCH   5   7
ATOM      7  O   UNL     1      35.792 -38.816 -27.502  0.00  0.00    -0.465 OA
BRANCH   7   8
ATOM      8  C   UNL     1      34.488 -39.433 -27.443  0.00  0.00    +0.092 C 
BRANCH   8   9
ATOM      9  C   UNL     1      33.328 -38.442 -27.359  0.00  0.00    -0.018 C 
BRANCH   9  10
ATOM     10  C   UNL     1      33.924 -37.044 -27.128  0.00  0.00    -0.049 C 
BRANCH  10  11
ATOM     11  C   UNL     1      32.969 -36.022 -26.509  0.00  0.00    -0.040 C 
BRANCH  11  12
ATOM     12  C   UNL     1      31.776 -36.764 -25.868  0.00  0.00    -0.001 C 
BRANCH  12  13
ATOM     13  N   UNL     1      31.594 -36.546 -24.421  0.00  0.00    -0.303 N 
ATOM     14  H   UNL     1      30.861 -35.843 -24.326  0.00  0.00    +0.000 HD
BRANCH  13  15
ATOM     15  C   UNL     1      31.149 -37.769 -23.726  0.00  0.00    -0.004 C 
ATOM     16  C   UNL     1      30.011 -37.438 -22.770  0.00  0.00    -0.052 C 
ENDBRANCH  13  15
BRANCH  13  18
ATOM     17  C   UNL     1      33.698 -37.117 -23.148  0.00  0.00    -0.052 C 
ATOM     18  C   UNL     1      32.833 -36.038 -23.794  0.00  0.00    -0.004 C 
ENDBRANCH  13  18
ENDBRANCH  12  13
ENDBRANCH  11  12
ENDBRANCH  10  11
ENDBRANCH   9  10
ENDBRANCH   8   9
ENDBRANCH   7   8
ENDBRANCH   5   7
ENDBRANCH   4   5
ENDBRANCH   2   4
ENDBRANCH   1   2
BRANCH   1  19
ATOM     19  C   UNL     1      36.014 -34.921 -30.679  0.00  0.00    -0.046 C 
BRANCH  19  20
ATOM     20  C   UNL     1      34.441 -34.512 -30.985  0.00  0.00    -0.012 C 
ATOM     21  C   UNL     1      33.774 -35.850 -31.355  0.00  0.00    -0.045 C 
ATOM     22  C   UNL     1      32.719 -36.207 -30.619  0.00  0.00    -0.082 C 
ATOM     23  C   UNL     1      32.169 -35.208 -29.669  0.00  0.00    -0.031 C 
ATOM     24  C   UNL     1      32.542 -33.695 -30.127  0.00  0.00    -0.027 C 
ATOM     25  C   UNL     1      31.233 -32.832 -29.455  0.00  0.00    -0.031 C 
ATOM     26  C   UNL     1      31.270 -32.843 -27.905  0.00  0.00    -0.060 C 
ATOM     27  C   UNL     1      29.844 -33.378 -29.895  0.00  0.00    -0.060 C 
ATOM     28  C   UNL     1      31.225 -31.356 -29.931  0.00  0.00    -0.048 C 
ATOM     29  C   UNL     1      32.622 -30.813 -30.012  0.00  0.00    -0.052 C 
ATOM     30  C   UNL     1      33.437 -31.883 -30.716  0.00  0.00    -0.047 C 
ATOM     31  C   UNL     1      33.437 -33.447 -29.757  0.00  0.00    -0.022 C 
ATOM     32  C   UNL     1      34.333 -33.200 -29.387  0.00  0.00    -0.059 C 
BRANCH  21  33
ATOM     33  C   UNL     1      34.316 -36.647 -32.516  0.00  0.00    +0.066 C 
BRANCH  33  34
ATOM     34  O   UNL     1      33.990 -38.026 -32.410  0.00  0.00    -0.391 OA
ATOM     35  H   UNL     1      34.679 -38.555 -32.842  0.00  0.00    +0.000 HD
ENDBRANCH  33  34
ENDBRANCH  21  33
ENDBRANCH  19  20
ENDBRANCH   1  19
TORSDOF 16
ENDMDL
MODEL 8
REMARK VINA RESULT:    -5.414      2.298      3.997
REMARK INTER + INTRA:         -13.274
REMARK INTER:                 -10.734
REMARK INTRA:                  -2.540
REMARK UNBOUND:                -2.955
REMARK  Name = cpd300.pdb
REMARK  22 active torsions:
REMARK  status: ('A' for Active; 'I' for Inactive)
REMARK    1  A    between atoms: C_1  and  C_2
REMARK    2  A    between atoms: C_2  and  N_3
REMARK    3  A    between atoms: N_3  and  C_4
REMARK    4  A    between atoms: N_3  and  C_6
REMARK    5  A    between atoms: C_4  and  C_5
REMARK    6  A    between atoms: C_6  and  C_7
REMARK    7  A    between atoms: C_7  and  C_8
REMARK    8  A    between atoms: C_8  and  C_9
REMARK    9  A    between atoms: C_9  and  C_10
REMARK   10  A    between atoms: C_10  and  O_11
REMARK   11  A    between atoms: O_11  and  C_12
REMARK   12  A    between atoms: C_12  and  C_14
REMARK   13  A    between atoms: C_14  and  C_15
REMARK   14  A    between atoms: C_15  and  C_16
REMARK   15  A    between atoms: C_15  and  C_17
REMARK   16  A    between atoms: C_17  and  C_18
REMARK   17  A    between atoms: C_18  and  C_19
REMARK   18  A    between atoms: C_20  and  C_21
REMARK   19  A    between atoms: C_21  and  O_22
REMARK   20  A    between atoms: C_26  and  C_27
REMARK   21  A    between atoms: C_26  and  C_28
REMARK   22  A    between atoms: C_32  and  C_33
REMARK                            x       y       z     vdW  Elec       q    Type
REMARK                         _______ _______ _______ _____ _____    ______ ____
ROOT
ATOM      1  C   UNL     1      40.396 -20.078 -36.951  0.00  0.00    -0.049 C 
ENDROOT
BRANCH   1   2
ATOM      2  C   UNL     1      39.084 -20.695 -36.404  0.00  0.00    -0.034 C 
ATOM      3  C   UNL     1      38.361 -19.770 -35.433  0.00  0.00    -0.062 C 
BRANCH   2   4
ATOM      4  C   UNL     1      39.588 -21.984 -35.705  0.00  0.00    +0.048 C 
BRANCH   4   5
ATOM      5  C   UNL     1      39.796 -22.091 -34.212  0.00  0.00    +0.307 C 
ATOM      6  O   UNL     1      38.980 -22.587 -33.448  0.00  0.00    -0.251 OA
BRANCH   5   7
ATOM      7  O   UNL     1      40.976 -21.532 -33.762  0.00  0.00    -0.465 OA
BRANCH   7   8
ATOM      8  C   UNL     1      40.936 -20.524 -32.729  0.00  0.00    +0.092 C 
BRANCH   8   9
ATOM      9  C   UNL     1      42.084 -19.516 -32.790  0.00  0.00    -0.018 C 
BRANCH   9  10
ATOM     10  C   UNL     1      42.163 -18.987 -34.232  0.00  0.00    -0.049 C 
BRANCH  10  11
ATOM     11  C   UNL     1      42.411 -17.483 -34.361  0.00  0.00    -0.040 C 
BRANCH  11  12
ATOM     12  C   UNL     1      43.778 -17.249 -35.040  0.00  0.00    -0.001 C 
BRANCH  12  13
ATOM     13  N   UNL     1      44.814 -16.635 -34.190  0.00  0.00    -0.303 N 
ATOM     14  H   UNL     1      45.245 -15.898 -34.749  0.00  0.00    +0.000 HD
BRANCH  13  15
ATOM     15  C   UNL     1      44.245 -16.016 -32.978  0.00  0.00    -0.004 C 
ATOM     16  C   UNL     1      44.967 -16.534 -31.742  0.00  0.00    -0.052 C 
ENDBRANCH  13  15
BRANCH  13  18
ATOM     17  C   UNL     1      46.234 -18.589 -34.921  0.00  0.00    -0.052 C 
ATOM     18  C   UNL     1      45.850 -17.618 -33.808  0.00  0.00    -0.004 C 
ENDBRANCH  13  18
ENDBRANCH  12  13
ENDBRANCH  11  12
ENDBRANCH  10  11
ENDBRANCH   9  10
ENDBRANCH   8   9
ENDBRANCH   7   8
ENDBRANCH   5   7
ENDBRANCH   4   5
ENDBRANCH   2   4
ENDBRANCH   1   2
BRANCH   1  19
ATOM     19  C   UNL     1      40.794 -20.042 -38.433  0.00  0.00    -0.046 C 
BRANCH  19  20
ATOM     20  C   UNL     1      42.036 -21.008 -38.945  0.00  0.00    -0.012 C 
ATOM     21  C   UNL     1      41.353 -22.024 -39.881  0.00  0.00    -0.045 C 
ATOM     22  C   UNL     1      41.828 -22.087 -41.128  0.00  0.00    -0.082 C 
ATOM     23  C   UNL     1      43.074 -21.342 -41.432  0.00  0.00    -0.031 C 
ATOM     24  C   UNL     1      43.957 -21.100 -40.090  0.00  0.00    -0.027 C 
ATOM     25  C   UNL     1      45.525 -21.016 -40.755  0.00  0.00    -0.031 C 
ATOM     26  C   UNL     1      45.711 -19.755 -41.636  0.00  0.00    -0.060 C 
ATOM     27  C   UNL     1      45.892 -22.253 -41.624  0.00  0.00    -0.060 C 
ATOM     28  C   UNL     1      46.609 -21.000 -39.646  0.00  0.00    -0.048 C 
ATOM     29  C   UNL     1      46.162 -20.179 -38.473  0.00  0.00    -0.052 C 
ATOM     30  C   UNL     1      44.732 -20.605 -38.196  0.00  0.00    -0.047 C 
ATOM     31  C   UNL     1      43.651 -20.261 -39.638  0.00  0.00    -0.022 C 
ATOM     32  C   UNL     1      43.345 -19.423 -39.187  0.00  0.00    -0.059 C 
BRANCH  21  33
ATOM     33  C   UNL     1      40.239 -22.888 -39.345  0.00  0.00    +0.066 C 
BRANCH  33  34
ATOM     34  O   UNL     1      40.209 -24.162 -39.972  0.00  0.00    -0.391 OA
ATOM     35  H   UNL     1      39.991 -24.056 -40.911  0.00  0.00    +0.000 HD
ENDBRANCH  33  34
ENDBRANCH  21  33
ENDBRANCH  19  20
ENDBRANCH   1  19
TORSDOF 16
ENDMDL
MODEL 9
REMARK VINA RESULT:    -5.336      1.372      2.112
REMARK INTER + INTRA:         -13.127
REMARK INTER:                 -11.180
REMARK INTRA:                  -1.946
REMARK UNBOUND:                -2.955
REMARK  Name = cpd300.pdb
REMARK  22 active torsions:
REMARK  status: ('A' for Active; 'I' for Inactive)
REMARK    1  A    between atoms: C_1  and  C_2
REMARK    2  A    between atoms: C_2  and  N_3
REMARK    3  A    between atoms: N_3  and  C_4
REMARK    4  A    between atoms: N_3  and  C_6
REMARK    5  A    between atoms: C_4  and  C_5
REMARK    6  A    between atoms: C_6  and  C_7
REMARK    7  A    between atoms: C_7  and  C_8
REMARK    8  A    between atoms: C_8  and  C_9
REMARK    9  A    between atoms: C_9  and  C_10
REMARK   10  A    between atoms: C_10  and  O_11
REMARK   11  A    between atoms: O_11  and  C_12
REMARK   12  A    between atoms: C_12  and  C_14
REMARK   13  A    between atoms: C_14  and  C_15
REMARK   14  A    between atoms: C_15  and  C_16
REMARK   15  A    between atoms: C_15  and  C_17
REMARK   16  A    between atoms: C_17  and  C_18
REMARK   17  A    between atoms: C_18  and  C_19
REMARK   18  A    between atoms: C_20  and  C_21
REMARK   19  A    between atoms: C_21  and  O_22
REMARK   20  A    between atoms: C_26  and  C_27
REMARK   21  A    between atoms: C_26  and  C_28
REMARK   22  A    between atoms: C_32  and  C_33
REMARK                            x       y       z     vdW  Elec       q    Type
REMARK                         _______ _______ _______ _____ _____    ______ ____
ROOT
ATOM      1  C   UNL     1      40.566 -19.707 -37.180  0.00  0.00    -0.049 C 
ENDROOT
BRANCH   1   2
ATOM      2  C   UNL     1      40.765 -20.707 -36.013  0.00  0.00    -0.034 C 
ATOM      3  C   UNL     1      42.010 -21.568 -36.185  0.00  0.00    -0.062 C 
BRANCH   2   4
ATOM      4  C   UNL     1      39.467 -21.553 -36.075  0.00  0.00    +0.048 C 
BRANCH   4   5
ATOM      5  C   UNL     1      39.375 -22.972 -35.562  0.00  0.00    +0.307 C 
ATOM      6  O   UNL     1      39.089 -23.930 -36.265  0.00  0.00    -0.251 OA
BRANCH   5   7
ATOM      7  O   UNL     1      39.595 -23.098 -34.205  0.00  0.00    -0.465 OA
BRANCH   7   8
ATOM      8  C   UNL     1      38.998 -22.148 -33.297  0.00  0.00    +0.092 C 
BRANCH   8   9
ATOM      9  C   UNL     1      37.480 -22.277 -33.162  0.00  0.00    -0.018 C 
BRANCH   9  10
ATOM     10  C   UNL     1      36.899 -20.856 -33.073  0.00  0.00    -0.049 C 
BRANCH  10  11
ATOM     11  C   UNL     1      37.918 -19.751 -32.793  0.00  0.00    -0.040 C 
BRANCH  11  12
ATOM     12  C   UNL     1      37.228 -18.376 -32.930  0.00  0.00    -0.001 C 
BRANCH  12  13
ATOM     13  N   UNL     1      37.928 -17.395 -33.779  0.00  0.00    -0.303 N 
ATOM     14  H   UNL     1      37.387 -17.324 -34.641  0.00  0.00    +0.000 HD
BRANCH  13  15
ATOM     15  C   UNL     1      37.978 -16.058 -33.159  0.00  0.00    -0.004 C 
ATOM     16  C   UNL     1      38.197 -16.188 -31.657  0.00  0.00    -0.052 C 
ENDBRANCH  13  15
BRANCH  13  18
ATOM     17  C   UNL     1      40.119 -16.834 -34.899  0.00  0.00    -0.052 C 
ATOM     18  C   UNL     1      39.298 -17.846 -34.105  0.00  0.00    -0.004 C 
ENDBRANCH  13  18
ENDBRANCH  12  13
ENDBRANCH  11  12
ENDBRANCH  10  11
ENDBRANCH   9  10
ENDBRANCH   8   9
ENDBRANCH   7   8
ENDBRANCH   5   7
ENDBRANCH   4   5
ENDBRANCH   2   4
ENDBRANCH   1   2
BRANCH   1  19
ATOM     19  C   UNL     1      40.702 -20.060 -38.667  0.00  0.00    -0.046 C 
BRANCH  19  20
ATOM     20  C   UNL     1      41.966 -21.016 -39.144  0.00  0.00    -0.012 C 
ATOM     21  C   UNL     1      41.304 -22.095 -40.022  0.00  0.00    -0.045 C 
ATOM     22  C   UNL     1      41.769 -22.207 -41.269  0.00  0.00    -0.082 C 
ATOM     23  C   UNL     1      42.991 -21.444 -41.622  0.00  0.00    -0.031 C 
ATOM     24  C   UNL     1      43.878 -21.111 -40.302  0.00  0.00    -0.027 C 
ATOM     25  C   UNL     1      45.438 -21.017 -40.987  0.00  0.00    -0.031 C 
ATOM     26  C   UNL     1      45.581 -19.796 -41.930  0.00  0.00    -0.060 C 
ATOM     27  C   UNL     1      45.832 -22.286 -41.798  0.00  0.00    -0.060 C 
ATOM     28  C   UNL     1      46.531 -20.917 -39.891  0.00  0.00    -0.048 C 
ATOM     29  C   UNL     1      46.071 -20.051 -38.755  0.00  0.00    -0.052 C 
ATOM     30  C   UNL     1      44.656 -20.503 -38.443  0.00  0.00    -0.047 C 
ATOM     31  C   UNL     1      43.553 -20.260 -39.889  0.00  0.00    -0.022 C 
ATOM     32  C   UNL     1      43.228 -19.409 -39.477  0.00  0.00    -0.059 C 
BRANCH  21  33
ATOM     33  C   UNL     1      40.219 -22.961 -39.432  0.00  0.00    +0.066 C 
BRANCH  33  34
ATOM     34  O   UNL     1      40.190 -24.252 -40.027  0.00  0.00    -0.391 OA
ATOM     35  H   UNL     1      40.899 -24.320 -40.686  0.00  0.00    +0.000 HD
ENDBRANCH  33  34
ENDBRANCH  21  33
ENDBRANCH  19  20
ENDBRANCH   1  19
TORSDOF 16
ENDMDL
MODEL 10
REMARK VINA RESULT:    -5.332      2.885      8.329
REMARK INTER + INTRA:         -13.119
REMARK INTER:                 -10.620
REMARK INTRA:                  -2.498
REMARK UNBOUND:                -2.955
REMARK  Name = cpd300.pdb
REMARK  22 active torsions:
REMARK  status: ('A' for Active; 'I' for Inactive)
REMARK    1  A    between atoms: C_1  and  C_2
REMARK    2  A    between atoms: C_2  and  N_3
REMARK    3  A    between atoms: N_3  and  C_4
REMARK    4  A    between atoms: N_3  and  C_6
REMARK    5  A    between atoms: C_4  and  C_5
REMARK    6  A    between atoms: C_6  and  C_7
REMARK    7  A    between atoms: C_7  and  C_8
REMARK    8  A    between atoms: C_8  and  C_9
REMARK    9  A    between atoms: C_9  and  C_10
REMARK   10  A    between atoms: C_10  and  O_11
REMARK   11  A    between atoms: O_11  and  C_12
REMARK   12  A    between atoms: C_12  and  C_14
REMARK   13  A    between atoms: C_14  and  C_15
REMARK   14  A    between atoms: C_15  and  C_16
REMARK   15  A    between atoms: C_15  and  C_17
REMARK   16  A    between atoms: C_17  and  C_18
REMARK   17  A    between atoms: C_18  and  C_19
REMARK   18  A    between atoms: C_20  and  C_21
REMARK   19  A    between atoms: C_21  and  O_22
REMARK   20  A    between atoms: C_26  and  C_27
REMARK   21  A    between atoms: C_26  and  C_28
REMARK   22  A    between atoms: C_32  and  C_33
REMARK                            x       y       z     vdW  Elec       q    Type
REMARK                         _______ _______ _______ _____ _____    ______ ____
ROOT
ATOM      1  C   UNL     1      43.423 -19.915 -37.407  0.00  0.00    -0.049 C 
ENDROOT
BRANCH   1   2
ATOM      2  C   UNL     1      42.875 -18.469 -37.518  0.00  0.00    -0.034 C 
ATOM      3  C   UNL     1      42.980 -17.909 -38.931  0.00  0.00    -0.062 C 
BRANCH   2   4
ATOM      4  C   UNL     1      43.778 -17.696 -36.523  0.00  0.00    +0.048 C 
BRANCH   4   5
ATOM      5  C   UNL     1      44.909 -18.341 -35.754  0.00  0.00    +0.307 C 
ATOM      6  O   UNL     1      44.747 -19.007 -34.742  0.00  0.00    -0.251 OA
BRANCH   5   7
ATOM      7  O   UNL     1      46.165 -18.075 -36.264  0.00  0.00    -0.465 OA
BRANCH   7   8
ATOM      8  C   UNL     1      46.288 -17.340 -37.500  0.00  0.00    +0.092 C 
BRANCH   8   9
ATOM      9  C   UNL     1      46.825 -18.164 -38.671  0.00  0.00    -0.018 C 
BRANCH   9  10
ATOM     10  C   UNL     1      47.221 -19.545 -38.125  0.00  0.00    -0.049 C 
BRANCH  10  11
ATOM     11  C   UNL     1      46.644 -20.738 -38.890  0.00  0.00    -0.040 C 
BRANCH  11  12
ATOM     12  C   UNL     1      46.024 -20.241 -40.215  0.00  0.00    -0.001 C 
BRANCH  12  13
ATOM     13  N   UNL     1      45.965 -21.235 -41.302  0.00  0.00    -0.303 N 
ATOM     14  H   UNL     1      46.635 -20.929 -42.008  0.00  0.00    +0.000 HD
BRANCH  13  15
ATOM     15  C   UNL     1      46.361 -22.581 -40.847  0.00  0.00    -0.004 C 
ATOM     16  C   UNL     1      47.092 -23.313 -41.965  0.00  0.00    -0.052 C 
ENDBRANCH  13  15
BRANCH  13  18
ATOM     17  C   UNL     1      44.275 -20.089 -42.786  0.00  0.00    -0.052 C 
ATOM     18  C   UNL     1      44.617 -21.289 -41.907  0.00  0.00    -0.004 C 
ENDBRANCH  13  18
ENDBRANCH  12  13
ENDBRANCH  11  12
ENDBRANCH  10  11
ENDBRANCH   9  10
ENDBRANCH   8   9
ENDBRANCH   7   8
ENDBRANCH   5   7
ENDBRANCH   4   5
ENDBRANCH   2   4
ENDBRANCH   1   2
BRANCH   1  19
ATOM     19  C   UNL     1      42.635 -21.107 -36.847  0.00  0.00    -0.046 C 
BRANCH  19  20
ATOM     20  C   UNL     1      41.048 -20.887 -36.432  0.00  0.00    -0.012 C 
ATOM     21  C   UNL     1      40.316 -22.043 -37.139  0.00  0.00    -0.045 C 
ATOM     22  C   UNL     1      39.596 -22.850 -36.357  0.00  0.00    -0.082 C 
ATOM     23  C   UNL     1      39.401 -22.449 -34.942  0.00  0.00    -0.031 C 
ATOM     24  C   UNL     1      39.563 -20.843 -34.759  0.00  0.00    -0.027 C 
ATOM     25  C   UNL     1      38.563 -20.578 -33.402  0.00  0.00    -0.031 C 
ATOM     26  C   UNL     1      39.146 -21.226 -32.121  0.00  0.00    -0.060 C 
ATOM     27  C   UNL     1      37.117 -21.123 -33.587  0.00  0.00    -0.060 C 
ATOM     28  C   UNL     1      38.363 -19.063 -33.135  0.00  0.00    -0.048 C 
ATOM     29  C   UNL     1      39.631 -18.304 -33.390  0.00  0.00    -0.052 C 
ATOM     30  C   UNL     1      40.162 -18.825 -34.713  0.00  0.00    -0.047 C 
ATOM     31  C   UNL     1      40.527 -20.620 -34.615  0.00  0.00    -0.022 C 
ATOM     32  C   UNL     1      41.492 -20.398 -34.470  0.00  0.00    -0.059 C 
BRANCH  21  33
ATOM     33  C   UNL     1      40.425 -22.177 -38.638  0.00  0.00    +0.066 C 
BRANCH  33  34
ATOM     34  O   UNL     1      41.028 -23.407 -39.016  0.00  0.00    -0.391 OA
ATOM     35  H   UNL     1      40.641 -23.714 -39.851  0.00  0.00    +0.000 HD
ENDBRANCH  33  34
ENDBRANCH  21  33
ENDBRANCH  19  20
ENDBRANCH   1  19
TORSDOF 16
ENDMDL
MODEL 11
REMARK VINA RESULT:    -5.326      3.090      4.785
REMARK INTER + INTRA:         -13.107
REMARK INTER:                 -10.905
REMARK INTRA:                  -2.203
REMARK UNBOUND:                -2.955
REMARK  Name = cpd300.pdb
REMARK  22 active torsions:
REMARK  status: ('A' for Active; 'I' for Inactive)
REMARK    1  A    between atoms: C_1  and  C_2
REMARK    2  A    between atoms: C_2  and  N_3
REMARK    3  A    between atoms: N_3  and  C_4
REMARK    4  A    between atoms: N_3  and  C_6
REMARK    5  A    between atoms: C_4  and  C_5
REMARK    6  A    between atoms: C_6  and  C_7
REMARK    7  A    between atoms: C_7  and  C_8
REMARK    8  A    between atoms: C_8  and  C_9
REMARK    9  A    between atoms: C_9  and  C_10
REMARK   10  A    between atoms: C_10  and  O_11
REMARK   11  A    between atoms: O_11  and  C_12
REMARK   12  A    between atoms: C_12  and  C_14
REMARK   13  A    between atoms: C_14  and  C_15
REMARK   14  A    between atoms: C_15  and  C_16
REMARK   15  A    between atoms: C_15  and  C_17
REMARK   16  A    between atoms: C_17  and  C_18
REMARK   17  A    between atoms: C_18  and  C_19
REMARK   18  A    between atoms: C_20  and  C_21
REMARK   19  A    between atoms: C_21  and  O_22
REMARK   20  A    between atoms: C_26  and  C_27
REMARK   21  A    between atoms: C_26  and  C_28
REMARK   22  A    between atoms: C_32  and  C_33
REMARK                            x       y       z     vdW  Elec       q    Type
REMARK                         _______ _______ _______ _____ _____    ______ ____
ROOT
ATOM      1  C   UNL     1      46.658 -17.551 -36.056  0.00  0.00    -0.049 C 
ENDROOT
BRANCH   1   2
ATOM      2  C   UNL     1      46.341 -18.557 -34.920  0.00  0.00    -0.034 C 
ATOM      3  C   UNL     1      46.951 -19.931 -35.166  0.00  0.00    -0.062 C 
BRANCH   2   4
ATOM      4  C   UNL     1      44.791 -18.603 -34.941  0.00  0.00    +0.048 C 
BRANCH   4   5
ATOM      5  C   UNL     1      43.962 -19.159 -33.806  0.00  0.00    +0.307 C 
ATOM      6  O   UNL     1      43.928 -18.667 -32.687  0.00  0.00    -0.251 OA
BRANCH   5   7
ATOM      7  O   UNL     1      43.271 -20.313 -34.120  0.00  0.00    -0.465 OA
BRANCH   7   8
ATOM      8  C   UNL     1      42.768 -20.495 -35.461  0.00  0.00    +0.092 C 
BRANCH   8   9
ATOM      9  C   UNL     1      41.369 -19.920 -35.691  0.00  0.00    -0.018 C 
BRANCH   9  10
ATOM     10  C   UNL     1      40.438 -21.090 -36.047  0.00  0.00    -0.049 C 
BRANCH  10  11
ATOM     11  C   UNL     1      39.052 -21.039 -35.401  0.00  0.00    -0.040 C 
BRANCH  11  12
ATOM     12  C   UNL     1      38.801 -22.354 -34.630  0.00  0.00    -0.001 C 
BRANCH  12  13
ATOM     13  N   UNL     1      38.823 -22.244 -33.160  0.00  0.00    -0.303 N 
ATOM     14  H   UNL     1      38.353 -23.076 -32.803  0.00  0.00    +0.000 HD
BRANCH  13  15
ATOM     15  C   UNL     1      40.196 -22.228 -32.623  0.00  0.00    -0.004 C 
ATOM     16  C   UNL     1      40.873 -23.567 -32.886  0.00  0.00    -0.052 C 
ENDBRANCH  13  15
BRANCH  13  18
ATOM     17  C   UNL     1      36.588 -21.242 -32.550  0.00  0.00    -0.052 C 
ATOM     18  C   UNL     1      38.093 -21.043 -32.701  0.00  0.00    -0.004 C 
ENDBRANCH  13  18
ENDBRANCH  12  13
ENDBRANCH  11  12
ENDBRANCH  10  11
ENDBRANCH   9  10
ENDBRANCH   8   9
ENDBRANCH   7   8
ENDBRANCH   5   7
ENDBRANCH   4   5
ENDBRANCH   2   4
ENDBRANCH   1   2
BRANCH   1  19
ATOM     19  C   UNL     1      47.276 -17.928 -37.409  0.00  0.00    -0.046 C 
BRANCH  19  20
ATOM     20  C   UNL     1      46.281 -18.084 -38.722  0.00  0.00    -0.012 C 
ATOM     21  C   UNL     1      46.878 -17.113 -39.758  0.00  0.00    -0.045 C 
ATOM     22  C   UNL     1      47.219 -17.643 -40.935  0.00  0.00    -0.082 C 
ATOM     23  C   UNL     1      46.809 -19.043 -41.207  0.00  0.00    -0.031 C 
ATOM     24  C   UNL     1      45.520 -19.463 -40.312  0.00  0.00    -0.027 C 
ATOM     25  C   UNL     1      44.811 -20.646 -41.315  0.00  0.00    -0.031 C 
ATOM     26  C   UNL     1      45.698 -21.912 -41.428  0.00  0.00    -0.060 C 
ATOM     27  C   UNL     1      44.530 -20.140 -42.760  0.00  0.00    -0.060 C 
ATOM     28  C   UNL     1      43.416 -21.073 -40.788  0.00  0.00    -0.048 C 
ATOM     29  C   UNL     1      43.412 -21.146 -39.289  0.00  0.00    -0.052 C 
ATOM     30  C   UNL     1      44.099 -19.879 -38.815  0.00  0.00    -0.047 C 
ATOM     31  C   UNL     1      45.829 -19.802 -39.423  0.00  0.00    -0.022 C 
ATOM     32  C   UNL     1      46.138 -20.140 -38.534  0.00  0.00    -0.059 C 
BRANCH  21  33
ATOM     33  C   UNL     1      47.013 -15.652 -39.406  0.00  0.00    +0.066 C 
BRANCH  33  34
ATOM     34  O   UNL     1      48.361 -15.209 -39.492  0.00  0.00    -0.391 OA
ATOM     35  H   UNL     1      48.758 -15.207 -38.607  0.00  0.00    +0.000 HD
ENDBRANCH  33  34
ENDBRANCH  21  33
ENDBRANCH  19  20
ENDBRANCH   1  19
TORSDOF 16
ENDMDL
MODEL 12
REMARK VINA RESULT:    -5.317      2.526      3.943
REMARK INTER + INTRA:         -13.089
REMARK INTER:                 -10.549
REMARK INTRA:                  -2.540
REMARK UNBOUND:                -2.955
REMARK  Name = cpd300.pdb
REMARK  22 active torsions:
REMARK  status: ('A' for Active; 'I' for Inactive)
REMARK    1  A    between atoms: C_1  and  C_2
REMARK    2  A    between atoms: C_2  and  N_3
REMARK    3  A    between atoms: N_3  and  C_4
REMARK    4  A    between atoms: N_3  and  C_6
REMARK    5  A    between atoms: C_4  and  C_5
REMARK    6  A    between atoms: C_6  and  C_7
REMARK    7  A    between atoms: C_7  and  C_8
REMARK    8  A    between atoms: C_8  and  C_9
REMARK    9  A    between atoms: C_9  and  C_10
REMARK   10  A    between atoms: C_10  and  O_11
REMARK   11  A    between atoms: O_11  and  C_12
REMARK   12  A    between atoms: C_12  and  C_14
REMARK   13  A    between atoms: C_14  and  C_15
REMARK   14  A    between atoms: C_15  and  C_16
REMARK   15  A    between atoms: C_15  and  C_17
REMARK   16  A    between atoms: C_17  and  C_18
REMARK   17  A    between atoms: C_18  and  C_19
REMARK   18  A    between atoms: C_20  and  C_21
REMARK   19  A    between atoms: C_21  and  O_22
REMARK   20  A    between atoms: C_26  and  C_27
REMARK   21  A    between atoms: C_26  and  C_28
REMARK   22  A    between atoms: C_32  and  C_33
REMARK                            x       y       z     vdW  Elec       q    Type
REMARK                         _______ _______ _______ _____ _____    ______ ____
ROOT
ATOM      1  C   UNL     1      43.642 -18.585 -36.732  0.00  0.00    -0.049 C 
ENDROOT
BRANCH   1   2
ATOM      2  C   UNL     1      44.304 -17.185 -36.811  0.00  0.00    -0.034 C 
ATOM      3  C   UNL     1      44.575 -16.745 -38.244  0.00  0.00    -0.062 C 
BRANCH   2   4
ATOM      4  C   UNL     1      45.618 -17.394 -36.014  0.00  0.00    +0.048 C 
BRANCH   4   5
ATOM      5  C   UNL     1      45.663 -17.526 -34.509  0.00  0.00    +0.307 C 
ATOM      6  O   UNL     1      46.504 -18.181 -33.910  0.00  0.00    -0.251 OA
BRANCH   5   7
ATOM      7  O   UNL     1      44.635 -16.877 -33.852  0.00  0.00    -0.465 OA
BRANCH   7   8
ATOM      8  C   UNL     1      43.717 -17.641 -33.043  0.00  0.00    +0.092 C 
BRANCH   8   9
ATOM      9  C   UNL     1      42.262 -17.180 -33.138  0.00  0.00    -0.018 C 
BRANCH   9  10
ATOM     10  C   UNL     1      41.384 -18.434 -33.282  0.00  0.00    -0.049 C 
BRANCH  10  11
ATOM     11  C   UNL     1      42.010 -19.730 -32.763  0.00  0.00    -0.040 C 
BRANCH  11  12
ATOM     12  C   UNL     1      42.035 -20.774 -33.902  0.00  0.00    -0.001 C 
BRANCH  12  13
ATOM     13  N   UNL     1      41.114 -21.913 -33.741  0.00  0.00    -0.303 N 
ATOM     14  H   UNL     1      41.621 -22.740 -34.058  0.00  0.00    +0.000 HD
BRANCH  13  15
ATOM     15  C   UNL     1      40.730 -22.124 -32.333  0.00  0.00    -0.004 C 
ATOM     16  C   UNL     1      41.430 -23.359 -31.782  0.00  0.00    -0.052 C 
ENDBRANCH  13  15
BRANCH  13  18
ATOM     17  C   UNL     1      38.917 -22.908 -34.486  0.00  0.00    -0.052 C 
ATOM     18  C   UNL     1      39.900 -21.745 -34.569  0.00  0.00    -0.004 C 
ENDBRANCH  13  18
ENDBRANCH  12  13
ENDBRANCH  11  12
ENDBRANCH  10  11
ENDBRANCH   9  10
ENDBRANCH   8   9
ENDBRANCH   7   8
ENDBRANCH   5   7
ENDBRANCH   4   5
ENDBRANCH   2   4
ENDBRANCH   1   2
BRANCH   1  19
ATOM     19  C   UNL     1      44.409 -19.913 -36.694  0.00  0.00    -0.046 C 
BRANCH  19  20
ATOM     20  C   UNL     1      44.456 -20.844 -38.061  0.00  0.00    -0.012 C 
ATOM     21  C   UNL     1      42.978 -20.957 -38.483  0.00  0.00    -0.045 C 
ATOM     22  C   UNL     1      42.685 -20.542 -39.718  0.00  0.00    -0.082 C 
ATOM     23  C   UNL     1      43.813 -20.212 -40.623  0.00  0.00    -0.031 C 
ATOM     24  C   UNL     1      45.170 -20.986 -40.178  0.00  0.00    -0.027 C 
ATOM     25  C   UNL     1      45.969 -21.111 -41.680  0.00  0.00    -0.031 C 
ATOM     26  C   UNL     1      46.410 -19.726 -42.215  0.00  0.00    -0.060 C 
ATOM     27  C   UNL     1      45.104 -21.786 -42.783  0.00  0.00    -0.060 C 
ATOM     28  C   UNL     1      47.224 -22.017 -41.579  0.00  0.00    -0.048 C 
ATOM     29  C   UNL     1      47.936 -21.799 -40.276  0.00  0.00    -0.052 C 
ATOM     30  C   UNL     1      46.854 -21.800 -39.212  0.00  0.00    -0.047 C 
ATOM     31  C   UNL     1      45.653 -20.441 -39.493  0.00  0.00    -0.022 C 
ATOM     32  C   UNL     1      46.137 -19.895 -38.809  0.00  0.00    -0.059 C 
BRANCH  21  33
ATOM     33  C   UNL     1      41.979 -21.542 -37.517  0.00  0.00    +0.066 C 
BRANCH  33  34
ATOM     34  O   UNL     1      41.344 -22.697 -38.047  0.00  0.00    -0.391 OA
ATOM     35  H   UNL     1      41.266 -22.610 -39.010  0.00  0.00    +0.000 HD
ENDBRANCH  33  34
ENDBRANCH  21  33
ENDBRANCH  19  20
ENDBRANCH   1  19
TORSDOF 16
ENDMDL
MODEL 13
REMARK VINA RESULT:    -5.196      2.711      4.683
REMARK INTER + INTRA:         -12.859
REMARK INTER:                  -9.450
REMARK INTRA:                  -3.409
REMARK UNBOUND:                -2.955
REMARK  Name = cpd300.pdb
REMARK  22 active torsions:
REMARK  status: ('A' for Active; 'I' for Inactive)
REMARK    1  A    between atoms: C_1  and  C_2
REMARK    2  A    between atoms: C_2  and  N_3
REMARK    3  A    between atoms: N_3  and  C_4
REMARK    4  A    between atoms: N_3  and  C_6
REMARK    5  A    between atoms: C_4  and  C_5
REMARK    6  A    between atoms: C_6  and  C_7
REMARK    7  A    between atoms: C_7  and  C_8
REMARK    8  A    between atoms: C_8  and  C_9
REMARK    9  A    between atoms: C_9  and  C_10
REMARK   10  A    between atoms: C_10  and  O_11
REMARK   11  A    between atoms: O_11  and  C_12
REMARK   12  A    between atoms: C_12  and  C_14
REMARK   13  A    between atoms: C_14  and  C_15
REMARK   14  A    between atoms: C_15  and  C_16
REMARK   15  A    between atoms: C_15  and  C_17
REMARK   16  A    between atoms: C_17  and  C_18
REMARK   17  A    between atoms: C_18  and  C_19
REMARK   18  A    between atoms: C_20  and  C_21
REMARK   19  A    between atoms: C_21  and  O_22
REMARK   20  A    between atoms: C_26  and  C_27
REMARK   21  A    between atoms: C_26  and  C_28
REMARK   22  A    between atoms: C_32  and  C_33
REMARK                            x       y       z     vdW  Elec       q    Type
REMARK                         _______ _______ _______ _____ _____    ______ ____
ROOT
ATOM      1  C   UNL     1      44.154 -17.383 -36.113  0.00  0.00    -0.049 C 
ENDROOT
BRANCH   1   2
ATOM      2  C   UNL     1      43.475 -16.674 -34.913  0.00  0.00    -0.034 C 
ATOM      3  C   UNL     1      43.886 -15.212 -34.787  0.00  0.00    -0.062 C 
BRANCH   2   4
ATOM      4  C   UNL     1      43.967 -17.517 -33.708  0.00  0.00    +0.048 C 
BRANCH   4   5
ATOM      5  C   UNL     1      43.894 -19.026 -33.666  0.00  0.00    +0.307 C 
ATOM      6  O   UNL     1      44.861 -19.746 -33.463  0.00  0.00    -0.251 OA
BRANCH   5   7
ATOM      7  O   UNL     1      42.639 -19.540 -33.926  0.00  0.00    -0.465 OA
BRANCH   7   8
ATOM      8  C   UNL     1      41.718 -19.749 -32.834  0.00  0.00    +0.092 C 
BRANCH   8   9
ATOM      9  C   UNL     1      41.482 -21.218 -32.482  0.00  0.00    -0.018 C 
BRANCH   9  10
ATOM     10  C   UNL     1      40.227 -21.683 -33.239  0.00  0.00    -0.049 C 
BRANCH  10  11
ATOM     11  C   UNL     1      40.492 -22.551 -34.470  0.00  0.00    -0.040 C 
BRANCH  11  12
ATOM     12  C   UNL     1      39.908 -21.855 -35.719  0.00  0.00    -0.001 C 
BRANCH  12  13
ATOM     13  N   UNL     1      40.572 -20.601 -36.117  0.00  0.00    -0.303 N 
ATOM     14  H   UNL     1      41.271 -20.405 -35.399  0.00  0.00    +0.000 HD
BRANCH  13  15
ATOM     15  C   UNL     1      41.269 -20.726 -37.410  0.00  0.00    -0.004 C 
ATOM     16  C   UNL     1      42.774 -20.788 -37.187  0.00  0.00    -0.052 C 
ENDBRANCH  13  15
BRANCH  13  18
ATOM     17  C   UNL     1      40.253 -18.097 -36.074  0.00  0.00    -0.052 C 
ATOM     18  C   UNL     1      39.612 -19.478 -36.173  0.00  0.00    -0.004 C 
ENDBRANCH  13  18
ENDBRANCH  12  13
ENDBRANCH  11  12
ENDBRANCH  10  11
ENDBRANCH   9  10
ENDBRANCH   8   9
ENDBRANCH   7   8
ENDBRANCH   5   7
ENDBRANCH   4   5
ENDBRANCH   2   4
ENDBRANCH   1   2
BRANCH   1  19
ATOM     19  C   UNL     1      45.412 -16.876 -36.829  0.00  0.00    -0.046 C 
BRANCH  19  20
ATOM     20  C   UNL     1      46.429 -17.980 -37.526  0.00  0.00    -0.012 C 
ATOM     21  C   UNL     1      47.054 -18.718 -36.327  0.00  0.00    -0.045 C 
ATOM     22  C   UNL     1      46.897 -20.044 -36.305  0.00  0.00    -0.082 C 
ATOM     23  C   UNL     1      46.331 -20.694 -37.512  0.00  0.00    -0.031 C 
ATOM     24  C   UNL     1      46.577 -19.787 -38.838  0.00  0.00    -0.027 C 
ATOM     25  C   UNL     1      46.611 -20.995 -40.042  0.00  0.00    -0.031 C 
ATOM     26  C   UNL     1      45.227 -21.669 -40.222  0.00  0.00    -0.060 C 
ATOM     27  C   UNL     1      47.648 -22.120 -39.757  0.00  0.00    -0.060 C 
ATOM     28  C   UNL     1      47.053 -20.414 -41.412  0.00  0.00    -0.048 C 
ATOM     29  C   UNL     1      46.472 -19.047 -41.624  0.00  0.00    -0.052 C 
ATOM     30  C   UNL     1      46.696 -18.300 -40.323  0.00  0.00    -0.047 C 
ATOM     31  C   UNL     1      45.832 -19.127 -38.931  0.00  0.00    -0.022 C 
ATOM     32  C   UNL     1      45.086 -18.467 -39.025  0.00  0.00    -0.059 C 
BRANCH  21  33
ATOM     33  C   UNL     1      47.813 -17.928 -35.290  0.00  0.00    +0.066 C 
BRANCH  33  34
ATOM     34  O   UNL     1      47.351 -18.201 -33.974  0.00  0.00    -0.391 OA
ATOM     35  H   UNL     1      46.381 -18.195 -33.964  0.00  0.00    +0.000 HD
ENDBRANCH  33  34
ENDBRANCH  21  33
ENDBRANCH  19  20
ENDBRANCH   1  19
TORSDOF 16
ENDMDL
MODEL 14
REMARK VINA RESULT:    -5.174      1.932      3.139
REMARK INTER + INTRA:         -12.817
REMARK INTER:                  -9.392
REMARK INTRA:                  -3.426
REMARK UNBOUND:                -2.955
REMARK  Name = cpd300.pdb
REMARK  22 active torsions:
REMARK  status: ('A' for Active; 'I' for Inactive)
REMARK    1  A    between atoms: C_1  and  C_2
REMARK    2  A    between atoms: C_2  and  N_3
REMARK    3  A    between atoms: N_3  and  C_4
REMARK    4  A    between atoms: N_3  and  C_6
REMARK    5  A    between atoms: C_4  and  C_5
REMARK    6  A    between atoms: C_6  and  C_7
REMARK    7  A    between atoms: C_7  and  C_8
REMARK    8  A    between atoms: C_8  and  C_9
REMARK    9  A    between atoms: C_9  and  C_10
REMARK   10  A    between atoms: C_10  and  O_11
REMARK   11  A    between atoms: O_11  and  C_12
REMARK   12  A    between atoms: C_12  and  C_14
REMARK   13  A    between atoms: C_14  and  C_15
REMARK   14  A    between atoms: C_15  and  C_16
REMARK   15  A    between atoms: C_15  and  C_17
REMARK   16  A    between atoms: C_17  and  C_18
REMARK   17  A    between atoms: C_18  and  C_19
REMARK   18  A    between atoms: C_20  and  C_21
REMARK   19  A    between atoms: C_21  and  O_22
REMARK   20  A    between atoms: C_26  and  C_27
REMARK   21  A    between atoms: C_26  and  C_28
REMARK   22  A    between atoms: C_32  and  C_33
REMARK                            x       y       z     vdW  Elec       q    Type
REMARK                         _______ _______ _______ _____ _____    ______ ____
ROOT
ATOM      1  C   UNL     1      42.425 -18.682 -37.525  0.00  0.00    -0.049 C 
ENDROOT
BRANCH   1   2
ATOM      2  C   UNL     1      42.623 -19.790 -36.459  0.00  0.00    -0.034 C 
ATOM      3  C   UNL     1      44.091 -20.118 -36.220  0.00  0.00    -0.062 C 
BRANCH   2   4
ATOM      4  C   UNL     1      41.858 -20.988 -37.080  0.00  0.00    +0.048 C 
BRANCH   4   5
ATOM      5  C   UNL     1      41.068 -21.982 -36.260  0.00  0.00    +0.307 C 
ATOM      6  O   UNL     1      40.948 -23.162 -36.556  0.00  0.00    -0.251 OA
BRANCH   5   7
ATOM      7  O   UNL     1      40.440 -21.436 -35.157  0.00  0.00    -0.465 OA
BRANCH   7   8
ATOM      8  C   UNL     1      40.733 -21.957 -33.844  0.00  0.00    +0.092 C 
BRANCH   8   9
ATOM      9  C   UNL     1      41.741 -21.127 -33.048  0.00  0.00    -0.018 C 
BRANCH   9  10
ATOM     10  C   UNL     1      41.015 -19.869 -32.545  0.00  0.00    -0.049 C 
BRANCH  10  11
ATOM     11  C   UNL     1      41.335 -18.583 -33.309  0.00  0.00    -0.040 C 
BRANCH  11  12
ATOM     12  C   UNL     1      40.018 -17.940 -33.796  0.00  0.00    -0.001 C 
BRANCH  12  13
ATOM     13  N   UNL     1      39.200 -18.772 -34.697  0.00  0.00    -0.303 N 
ATOM     14  H   UNL     1      39.684 -19.666 -34.782  0.00  0.00    +0.000 HD
BRANCH  13  15
ATOM     15  C   UNL     1      37.855 -19.030 -34.150  0.00  0.00    -0.004 C 
ATOM     16  C   UNL     1      37.633 -18.190 -32.899  0.00  0.00    -0.052 C 
ENDBRANCH  13  15
BRANCH  13  18
ATOM     17  C   UNL     1      38.664 -19.128 -37.139  0.00  0.00    -0.052 C 
ATOM     18  C   UNL     1      39.084 -18.158 -36.037  0.00  0.00    -0.004 C 
ENDBRANCH  13  18
ENDBRANCH  12  13
ENDBRANCH  11  12
ENDBRANCH  10  11
ENDBRANCH   9  10
ENDBRANCH   8   9
ENDBRANCH   7   8
ENDBRANCH   5   7
ENDBRANCH   4   5
ENDBRANCH   2   4
ENDBRANCH   1   2
BRANCH   1  19
ATOM     19  C   UNL     1      42.177 -18.940 -39.017  0.00  0.00    -0.046 C 
BRANCH  19  20
ATOM     20  C   UNL     1      43.475 -18.984 -40.043  0.00  0.00    -0.012 C 
ATOM     21  C   UNL     1      44.367 -17.824 -39.562  0.00  0.00    -0.045 C 
ATOM     22  C   UNL     1      45.618 -18.144 -39.222  0.00  0.00    -0.082 C 
ATOM     23  C   UNL     1      46.087 -19.518 -39.528  0.00  0.00    -0.031 C 
ATOM     24  C   UNL     1      45.236 -20.172 -40.747  0.00  0.00    -0.027 C 
ATOM     25  C   UNL     1      46.389 -21.250 -41.393  0.00  0.00    -0.031 C 
ATOM     26  C   UNL     1      46.711 -22.406 -40.413  0.00  0.00    -0.060 C 
ATOM     27  C   UNL     1      47.735 -20.562 -41.765  0.00  0.00    -0.060 C 
ATOM     28  C   UNL     1      45.900 -21.866 -42.730  0.00  0.00    -0.048 C 
ATOM     29  C   UNL     1      44.430 -22.160 -42.676  0.00  0.00    -0.052 C 
ATOM     30  C   UNL     1      43.786 -20.923 -42.076  0.00  0.00    -0.047 C 
ATOM     31  C   UNL     1      44.415 -20.611 -40.380  0.00  0.00    -0.022 C 
ATOM     32  C   UNL     1      43.595 -21.050 -40.014  0.00  0.00    -0.059 C 
BRANCH  21  33
ATOM     33  C   UNL     1      43.803 -16.425 -39.532  0.00  0.00    +0.066 C 
BRANCH  33  34
ATOM     34  O   UNL     1      43.419 -15.981 -40.826  0.00  0.00    -0.391 OA
ATOM     35  H   UNL     1      42.969 -15.125 -40.754  0.00  0.00    +0.000 HD
ENDBRANCH  33  34
ENDBRANCH  21  33
ENDBRANCH  19  20
ENDBRANCH   1  19
TORSDOF 16
ENDMDL
MODEL 15
REMARK VINA RESULT:    -5.149      3.171      4.874
REMARK INTER + INTRA:         -12.770
REMARK INTER:                  -9.026
REMARK INTRA:                  -3.744
REMARK UNBOUND:                -2.955
REMARK  Name = cpd300.pdb
REMARK  22 active torsions:
REMARK  status: ('A' for Active; 'I' for Inactive)
REMARK    1  A    between atoms: C_1  and  C_2
REMARK    2  A    between atoms: C_2  and  N_3
REMARK    3  A    between atoms: N_3  and  C_4
REMARK    4  A    between atoms: N_3  and  C_6
REMARK    5  A    between atoms: C_4  and  C_5
REMARK    6  A    between atoms: C_6  and  C_7
REMARK    7  A    between atoms: C_7  and  C_8
REMARK    8  A    between atoms: C_8  and  C_9
REMARK    9  A    between atoms: C_9  and  C_10
REMARK   10  A    between atoms: C_10  and  O_11
REMARK   11  A    between atoms: O_11  and  C_12
REMARK   12  A    between atoms: C_12  and  C_14
REMARK   13  A    between atoms: C_14  and  C_15
REMARK   14  A    between atoms: C_15  and  C_16
REMARK   15  A    between atoms: C_15  and  C_17
REMARK   16  A    between atoms: C_17  and  C_18
REMARK   17  A    between atoms: C_18  and  C_19
REMARK   18  A    between atoms: C_20  and  C_21
REMARK   19  A    between atoms: C_21  and  O_22
REMARK   20  A    between atoms: C_26  and  C_27
REMARK   21  A    between atoms: C_26  and  C_28
REMARK   22  A    between atoms: C_32  and  C_33
REMARK                            x       y       z     vdW  Elec       q    Type
REMARK                         _______ _______ _______ _____ _____    ______ ____
ROOT
ATOM      1  C   UNL     1      45.181 -15.501 -37.027  0.00  0.00    -0.049 C 
ENDROOT
BRANCH   1   2
ATOM      2  C   UNL     1      44.957 -16.625 -35.984  0.00  0.00    -0.034 C 
ATOM      3  C   UNL     1      44.220 -16.136 -34.743  0.00  0.00    -0.062 C 
BRANCH   2   4
ATOM      4  C   UNL     1      46.406 -17.068 -35.656  0.00  0.00    +0.048 C 
BRANCH   4   5
ATOM      5  C   UNL     1      46.739 -18.116 -34.619  0.00  0.00    +0.307 C 
ATOM      6  O   UNL     1      47.352 -17.880 -33.588  0.00  0.00    -0.251 OA
BRANCH   5   7
ATOM      7  O   UNL     1      46.334 -19.393 -34.954  0.00  0.00    -0.465 OA
BRANCH   7   8
ATOM      8  C   UNL     1      45.123 -19.927 -34.377  0.00  0.00    +0.092 C 
BRANCH   8   9
ATOM      9  C   UNL     1      44.066 -20.338 -35.402  0.00  0.00    -0.018 C 
BRANCH   9  10
ATOM     10  C   UNL     1      42.722 -19.744 -34.949  0.00  0.00    -0.049 C 
BRANCH  10  11
ATOM     11  C   UNL     1      41.481 -20.416 -35.539  0.00  0.00    -0.040 C 
BRANCH  11  12
ATOM     12  C   UNL     1      40.898 -19.520 -36.654  0.00  0.00    -0.001 C 
BRANCH  12  13
ATOM     13  N   UNL     1      40.628 -20.195 -37.936  0.00  0.00    -0.303 N 
ATOM     14  H   UNL     1      40.503 -21.184 -37.719  0.00  0.00    +0.000 HD
BRANCH  13  15
ATOM     15  C   UNL     1      39.391 -19.706 -38.573  0.00  0.00    -0.004 C 
ATOM     16  C   UNL     1      38.838 -18.520 -37.793  0.00  0.00    -0.052 C 
ENDBRANCH  13  15
BRANCH  13  18
ATOM     17  C   UNL     1      42.620 -21.301 -39.023  0.00  0.00    -0.052 C 
ATOM     18  C   UNL     1      41.763 -20.047 -38.872  0.00  0.00    -0.004 C 
ENDBRANCH  13  18
ENDBRANCH  12  13
ENDBRANCH  11  12
ENDBRANCH  10  11
ENDBRANCH   9  10
ENDBRANCH   8   9
ENDBRANCH   7   8
ENDBRANCH   5   7
ENDBRANCH   4   5
ENDBRANCH   2   4
ENDBRANCH   1   2
BRANCH   1  19
ATOM     19  C   UNL     1      45.160 -15.703 -38.548  0.00  0.00    -0.046 C 
BRANCH  19  20
ATOM     20  C   UNL     1      44.669 -17.164 -39.148  0.00  0.00    -0.012 C 
ATOM     21  C   UNL     1      43.524 -16.803 -40.114  0.00  0.00    -0.045 C 
ATOM     22  C   UNL     1      43.667 -17.215 -41.377  0.00  0.00    -0.082 C 
ATOM     23  C   UNL     1      44.787 -18.139 -41.680  0.00  0.00    -0.031 C 
ATOM     24  C   UNL     1      45.249 -18.958 -40.355  0.00  0.00    -0.027 C 
ATOM     25  C   UNL     1      45.863 -20.383 -41.063  0.00  0.00    -0.031 C 
ATOM     26  C   UNL     1      47.150 -20.112 -41.883  0.00  0.00    -0.060 C 
ATOM     27  C   UNL     1      44.846 -21.089 -42.007  0.00  0.00    -0.060 C 
ATOM     28  C   UNL     1      46.185 -21.454 -39.989  0.00  0.00    -0.048 C 
ATOM     29  C   UNL     1      46.771 -20.820 -38.762  0.00  0.00    -0.052 C 
ATOM     30  C   UNL     1      45.894 -19.619 -38.463  0.00  0.00    -0.047 C 
ATOM     31  C   UNL     1      45.925 -18.419 -39.851  0.00  0.00    -0.022 C 
ATOM     32  C   UNL     1      46.600 -17.880 -39.348  0.00  0.00    -0.059 C 
BRANCH  21  33
ATOM     33  C   UNL     1      42.326 -16.053 -39.589  0.00  0.00    +0.066 C 
BRANCH  33  34
ATOM     34  O   UNL     1      41.108 -16.714 -39.904  0.00  0.00    -0.391 OA
ATOM     35  H   UNL     1      40.444 -16.058 -40.169  0.00  0.00    +0.000 HD
ENDBRANCH  33  34
ENDBRANCH  21  33
ENDBRANCH  19  20
ENDBRANCH   1  19
TORSDOF 16
ENDMDL
MODEL 16
REMARK VINA RESULT:    -5.143      3.781      6.873
REMARK INTER + INTRA:         -12.759
REMARK INTER:                  -9.468
REMARK INTRA:                  -3.291
REMARK UNBOUND:                -2.955
REMARK  Name = cpd300.pdb
REMARK  22 active torsions:
REMARK  status: ('A' for Active; 'I' for Inactive)
REMARK    1  A    between atoms: C_1  and  C_2
REMARK    2  A    between atoms: C_2  and  N_3
REMARK    3  A    between atoms: N_3  and  C_4
REMARK    4  A    between atoms: N_3  and  C_6
REMARK    5  A    between atoms: C_4  and  C_5
REMARK    6  A    between atoms: C_6  and  C_7
REMARK    7  A    between atoms: C_7  and  C_8
REMARK    8  A    between atoms: C_8  and  C_9
REMARK    9  A    between atoms: C_9  and  C_10
REMARK   10  A    between atoms: C_10  and  O_11
REMARK   11  A    between atoms: O_11  and  C_12
REMARK   12  A    between atoms: C_12  and  C_14
REMARK   13  A    between atoms: C_14  and  C_15
REMARK   14  A    between atoms: C_15  and  C_16
REMARK   15  A    between atoms: C_15  and  C_17
REMARK   16  A    between atoms: C_17  and  C_18
REMARK   17  A    between atoms: C_18  and  C_19
REMARK   18  A    between atoms: C_20  and  C_21
REMARK   19  A    between atoms: C_21  and  O_22
REMARK   20  A    between atoms: C_26  and  C_27
REMARK   21  A    between atoms: C_26  and  C_28
REMARK   22  A    between atoms: C_32  and  C_33
REMARK                            x       y       z     vdW  Elec       q    Type
REMARK                         _______ _______ _______ _____ _____    ______ ____
ROOT
ATOM      1  C   UNL     1      44.936 -19.269 -41.722  0.00  0.00    -0.049 C 
ENDROOT
BRANCH   1   2
ATOM      2  C   UNL     1      44.654 -18.021 -40.846  0.00  0.00    -0.034 C 
ATOM      3  C   UNL     1      43.727 -17.024 -41.529  0.00  0.00    -0.062 C 
BRANCH   2   4
ATOM      4  C   UNL     1      46.075 -17.436 -40.634  0.00  0.00    +0.048 C 
BRANCH   4   5
ATOM      5  C   UNL     1      46.551 -16.869 -39.317  0.00  0.00    +0.307 C 
ATOM      6  O   UNL     1      47.309 -17.457 -38.559  0.00  0.00    -0.251 OA
BRANCH   5   7
ATOM      7  O   UNL     1      46.016 -15.634 -39.005  0.00  0.00    -0.465 OA
BRANCH   7   8
ATOM      8  C   UNL     1      45.074 -15.523 -37.918  0.00  0.00    +0.092 C 
BRANCH   8   9
ATOM      9  C   UNL     1      45.652 -14.901 -36.646  0.00  0.00    -0.018 C 
BRANCH   9  10
ATOM     10  C   UNL     1      44.851 -15.449 -35.454  0.00  0.00    -0.049 C 
BRANCH  10  11
ATOM     11  C   UNL     1      43.780 -16.483 -35.807  0.00  0.00    -0.040 C 
BRANCH  11  12
ATOM     12  C   UNL     1      43.651 -17.497 -34.650  0.00  0.00    -0.001 C 
BRANCH  12  13
ATOM     13  N   UNL     1      44.895 -17.784 -33.913  0.00  0.00    -0.303 N 
ATOM     14  H   UNL     1      45.510 -16.983 -34.065  0.00  0.00    +0.000 HD
BRANCH  13  15
ATOM     15  C   UNL     1      44.665 -17.917 -32.463  0.00  0.00    -0.004 C 
ATOM     16  C   UNL     1      45.010 -16.610 -31.760  0.00  0.00    -0.052 C 
ENDBRANCH  13  15
BRANCH  13  18
ATOM     17  C   UNL     1      46.930 -18.759 -35.044  0.00  0.00    -0.052 C 
ATOM     18  C   UNL     1      45.556 -19.003 -34.428  0.00  0.00    -0.004 C 
ENDBRANCH  13  18
ENDBRANCH  12  13
ENDBRANCH  11  12
ENDBRANCH  10  11
ENDBRANCH   9  10
ENDBRANCH   8   9
ENDBRANCH   7   8
ENDBRANCH   5   7
ENDBRANCH   4   5
ENDBRANCH   2   4
ENDBRANCH   1   2
BRANCH   1  19
ATOM     19  C   UNL     1      44.262 -20.636 -41.538  0.00  0.00    -0.046 C 
BRANCH  19  20
ATOM     20  C   UNL     1      44.011 -21.198 -40.003  0.00  0.00    -0.012 C 
ATOM     21  C   UNL     1      45.354 -20.948 -39.292  0.00  0.00    -0.045 C 
ATOM     22  C   UNL     1      45.306 -20.200 -38.187  0.00  0.00    -0.082 C 
ATOM     23  C   UNL     1      43.969 -19.860 -37.640  0.00  0.00    -0.031 C 
ATOM     24  C   UNL     1      42.851 -20.942 -38.106  0.00  0.00    -0.027 C 
ATOM     25  C   UNL     1      41.748 -20.833 -36.809  0.00  0.00    -0.031 C 
ATOM     26  C   UNL     1      41.038 -19.457 -36.771  0.00  0.00    -0.060 C 
ATOM     27  C   UNL     1      42.409 -21.059 -35.418  0.00  0.00    -0.060 C 
ATOM     28  C   UNL     1      40.664 -21.940 -36.895  0.00  0.00    -0.048 C 
ATOM     29  C   UNL     1      40.249 -22.172 -38.318  0.00  0.00    -0.052 C 
ATOM     30  C   UNL     1      41.539 -22.245 -39.114  0.00  0.00    -0.047 C 
ATOM     31  C   UNL     1      42.477 -20.672 -38.994  0.00  0.00    -0.022 C 
ATOM     32  C   UNL     1      42.104 -20.402 -39.881  0.00  0.00    -0.059 C 
BRANCH  21  33
ATOM     33  C   UNL     1      46.610 -21.569 -39.851  0.00  0.00    +0.066 C 
BRANCH  33  34
ATOM     34  O   UNL     1      47.676 -20.633 -39.924  0.00  0.00    -0.391 OA
ATOM     35  H   UNL     1      47.451 -19.935 -40.559  0.00  0.00    +0.000 HD
ENDBRANCH  33  34
ENDBRANCH  21  33
ENDBRANCH  19  20
ENDBRANCH   1  19
TORSDOF 16
ENDMDL
MODEL 17
REMARK VINA RESULT:    -5.096      3.196      4.980
REMARK INTER + INTRA:         -12.668
REMARK INTER:                 -10.447
REMARK INTRA:                  -2.221
REMARK UNBOUND:                -2.955
REMARK  Name = cpd300.pdb
REMARK  22 active torsions:
REMARK  status: ('A' for Active; 'I' for Inactive)
REMARK    1  A    between atoms: C_1  and  C_2
REMARK    2  A    between atoms: C_2  and  N_3
REMARK    3  A    between atoms: N_3  and  C_4
REMARK    4  A    between atoms: N_3  and  C_6
REMARK    5  A    between atoms: C_4  and  C_5
REMARK    6  A    between atoms: C_6  and  C_7
REMARK    7  A    between atoms: C_7  and  C_8
REMARK    8  A    between atoms: C_8  and  C_9
REMARK    9  A    between atoms: C_9  and  C_10
REMARK   10  A    between atoms: C_10  and  O_11
REMARK   11  A    between atoms: O_11  and  C_12
REMARK   12  A    between atoms: C_12  and  C_14
REMARK   13  A    between atoms: C_14  and  C_15
REMARK   14  A    between atoms: C_15  and  C_16
REMARK   15  A    between atoms: C_15  and  C_17
REMARK   16  A    between atoms: C_17  and  C_18
REMARK   17  A    between atoms: C_18  and  C_19
REMARK   18  A    between atoms: C_20  and  C_21
REMARK   19  A    between atoms: C_21  and  O_22
REMARK   20  A    between atoms: C_26  and  C_27
REMARK   21  A    between atoms: C_26  and  C_28
REMARK   22  A    between atoms: C_32  and  C_33
REMARK                            x       y       z     vdW  Elec       q    Type
REMARK                         _______ _______ _______ _____ _____    ______ ____
ROOT
ATOM      1  C   UNL     1      46.709 -17.646 -36.088  0.00  0.00    -0.049 C 
ENDROOT
BRANCH   1   2
ATOM      2  C   UNL     1      46.470 -18.504 -34.819  0.00  0.00    -0.034 C 
ATOM      3  C   UNL     1      46.226 -19.973 -35.141  0.00  0.00    -0.062 C 
BRANCH   2   4
ATOM      4  C   UNL     1      45.218 -17.834 -34.196  0.00  0.00    +0.048 C 
BRANCH   4   5
ATOM      5  C   UNL     1      44.735 -18.121 -32.793  0.00  0.00    +0.307 C 
ATOM      6  O   UNL     1      45.184 -17.574 -31.796  0.00  0.00    -0.251 OA
BRANCH   5   7
ATOM      7  O   UNL     1      43.763 -19.100 -32.717  0.00  0.00    -0.465 OA
BRANCH   7   8
ATOM      8  C   UNL     1      42.545 -18.950 -33.477  0.00  0.00    +0.092 C 
BRANCH   8   9
ATOM      9  C   UNL     1      41.296 -18.722 -32.624  0.00  0.00    -0.018 C 
BRANCH   9  10
ATOM     10  C   UNL     1      40.233 -19.738 -33.072  0.00  0.00    -0.049 C 
BRANCH  10  11
ATOM     11  C   UNL     1      40.755 -20.890 -33.933  0.00  0.00    -0.040 C 
BRANCH  11  12
ATOM     12  C   UNL     1      39.644 -21.340 -34.907  0.00  0.00    -0.001 C 
BRANCH  12  13
ATOM     13  N   UNL     1      39.821 -20.925 -36.310  0.00  0.00    -0.303 N 
ATOM     14  H   UNL     1      39.177 -20.148 -36.464  0.00  0.00    +0.000 HD
BRANCH  13  15
ATOM     15  C   UNL     1      41.189 -20.446 -36.581  0.00  0.00    -0.004 C 
ATOM     16  C   UNL     1      41.159 -18.971 -36.957  0.00  0.00    -0.052 C 
ENDBRANCH  13  15
BRANCH  13  18
ATOM     17  C   UNL     1      39.669 -21.673 -38.717  0.00  0.00    -0.052 C 
ATOM     18  C   UNL     1      39.483 -22.022 -37.242  0.00  0.00    -0.004 C 
ENDBRANCH  13  18
ENDBRANCH  12  13
ENDBRANCH  11  12
ENDBRANCH  10  11
ENDBRANCH   9  10
ENDBRANCH   8   9
ENDBRANCH   7   8
ENDBRANCH   5   7
ENDBRANCH   4   5
ENDBRANCH   2   4
ENDBRANCH   1   2
BRANCH   1  19
ATOM     19  C   UNL     1      47.297 -18.176 -37.403  0.00  0.00    -0.046 C 
BRANCH  19  20
ATOM     20  C   UNL     1      46.327 -18.231 -38.742  0.00  0.00    -0.012 C 
ATOM     21  C   UNL     1      46.965 -17.212 -39.704  0.00  0.00    -0.045 C 
ATOM     22  C   UNL     1      47.320 -17.677 -40.905  0.00  0.00    -0.082 C 
ATOM     23  C   UNL     1      46.888 -19.049 -41.270  0.00  0.00    -0.031 C 
ATOM     24  C   UNL     1      45.572 -19.494 -40.428  0.00  0.00    -0.027 C 
ATOM     25  C   UNL     1      44.861 -20.599 -41.516  0.00  0.00    -0.031 C 
ATOM     26  C   UNL     1      45.724 -21.874 -41.688  0.00  0.00    -0.060 C 
ATOM     27  C   UNL     1      44.621 -20.001 -42.933  0.00  0.00    -0.060 C 
ATOM     28  C   UNL     1      43.447 -21.027 -41.044  0.00  0.00    -0.048 C 
ATOM     29  C   UNL     1      43.409 -21.191 -39.553  0.00  0.00    -0.052 C 
ATOM     30  C   UNL     1      44.112 -19.971 -38.988  0.00  0.00    -0.047 C 
ATOM     31  C   UNL     1      45.855 -19.893 -39.556  0.00  0.00    -0.022 C 
ATOM     32  C   UNL     1      46.139 -20.292 -38.684  0.00  0.00    -0.059 C 
BRANCH  21  33
ATOM     33  C   UNL     1      47.122 -15.779 -39.262  0.00  0.00    +0.066 C 
BRANCH  33  34
ATOM     34  O   UNL     1      46.160 -14.928 -39.870  0.00  0.00    -0.391 OA
ATOM     35  H   UNL     1      45.484 -15.468 -40.309  0.00  0.00    +0.000 HD
ENDBRANCH  33  34
ENDBRANCH  21  33
ENDBRANCH  19  20
ENDBRANCH   1  19
TORSDOF 16
ENDMDL
MODEL 18
REMARK VINA RESULT:    -5.023      3.092      4.797
REMARK INTER + INTRA:         -12.529
REMARK INTER:                  -9.976
REMARK INTRA:                  -2.552
REMARK UNBOUND:                -2.955
REMARK  Name = cpd300.pdb
REMARK  22 active torsions:
REMARK  status: ('A' for Active; 'I' for Inactive)
REMARK    1  A    between atoms: C_1  and  C_2
REMARK    2  A    between atoms: C_2  and  N_3
REMARK    3  A    between atoms: N_3  and  C_4
REMARK    4  A    between atoms: N_3  and  C_6
REMARK    5  A    between atoms: C_4  and  C_5
REMARK    6  A    between atoms: C_6  and  C_7
REMARK    7  A    between atoms: C_7  and  C_8
REMARK    8  A    between atoms: C_8  and  C_9
REMARK    9  A    between atoms: C_9  and  C_10
REMARK   10  A    between atoms: C_10  and  O_11
REMARK   11  A    between atoms: O_11  and  C_12
REMARK   12  A    between atoms: C_12  and  C_14
REMARK   13  A    between atoms: C_14  and  C_15
REMARK   14  A    between atoms: C_15  and  C_16
REMARK   15  A    between atoms: C_15  and  C_17
REMARK   16  A    between atoms: C_17  and  C_18
REMARK   17  A    between atoms: C_18  and  C_19
REMARK   18  A    between atoms: C_20  and  C_21
REMARK   19  A    between atoms: C_21  and  O_22
REMARK   20  A    between atoms: C_26  and  C_27
REMARK   21  A    between atoms: C_26  and  C_28
REMARK   22  A    between atoms: C_32  and  C_33
REMARK                            x       y       z     vdW  Elec       q    Type
REMARK                         _______ _______ _______ _____ _____    ______ ____
ROOT
ATOM      1  C   UNL     1      46.829 -17.623 -36.050  0.00  0.00    -0.049 C 
ENDROOT
BRANCH   1   2
ATOM      2  C   UNL     1      46.119 -18.274 -34.835  0.00  0.00    -0.034 C 
ATOM      3  C   UNL     1      45.834 -19.756 -35.048  0.00  0.00    -0.062 C 
BRANCH   2   4
ATOM      4  C   UNL     1      44.813 -17.445 -34.729  0.00  0.00    +0.048 C 
BRANCH   4   5
ATOM      5  C   UNL     1      43.926 -17.140 -35.914  0.00  0.00    +0.307 C 
ATOM      6  O   UNL     1      43.998 -16.110 -36.568  0.00  0.00    -0.251 OA
BRANCH   5   7
ATOM      7  O   UNL     1      42.977 -18.109 -36.176  0.00  0.00    -0.465 OA
BRANCH   7   8
ATOM      8  C   UNL     1      42.108 -18.556 -35.114  0.00  0.00    +0.092 C 
BRANCH   8   9
ATOM      9  C   UNL     1      41.998 -20.076 -34.990  0.00  0.00    -0.018 C 
BRANCH   9  10
ATOM     10  C   UNL     1      41.950 -20.419 -33.492  0.00  0.00    -0.049 C 
BRANCH  10  11
ATOM     11  C   UNL     1      41.348 -21.784 -33.154  0.00  0.00    -0.040 C 
BRANCH  11  12
ATOM     12  C   UNL     1      39.967 -21.581 -32.493  0.00  0.00    -0.001 C 
BRANCH  12  13
ATOM     13  N   UNL     1      38.809 -22.025 -33.289  0.00  0.00    -0.303 N 
ATOM     14  H   UNL     1      38.060 -22.221 -32.624  0.00  0.00    +0.000 HD
BRANCH  13  15
ATOM     15  C   UNL     1      38.335 -20.978 -34.215  0.00  0.00    -0.004 C 
ATOM     16  C   UNL     1      37.154 -20.238 -33.602  0.00  0.00    -0.052 C 
ENDBRANCH  13  15
BRANCH  13  18
ATOM     17  C   UNL     1      38.946 -23.127 -35.556  0.00  0.00    -0.052 C 
ATOM     18  C   UNL     1      39.117 -23.258 -34.045  0.00  0.00    -0.004 C 
ENDBRANCH  13  18
ENDBRANCH  12  13
ENDBRANCH  11  12
ENDBRANCH  10  11
ENDBRANCH   9  10
ENDBRANCH   8   9
ENDBRANCH   7   8
ENDBRANCH   5   7
ENDBRANCH   4   5
ENDBRANCH   2   4
ENDBRANCH   1   2
BRANCH   1  19
ATOM     19  C   UNL     1      47.234 -18.368 -37.328  0.00  0.00    -0.046 C 
BRANCH  19  20
ATOM     20  C   UNL     1      46.202 -18.346 -38.621  0.00  0.00    -0.012 C 
ATOM     21  C   UNL     1      46.799 -17.276 -39.554  0.00  0.00    -0.045 C 
ATOM     22  C   UNL     1      47.095 -17.673 -40.794  0.00  0.00    -0.082 C 
ATOM     23  C   UNL     1      46.641 -19.021 -41.215  0.00  0.00    -0.031 C 
ATOM     24  C   UNL     1      45.364 -19.511 -40.339  0.00  0.00    -0.027 C 
ATOM     25  C   UNL     1      44.598 -20.552 -41.453  0.00  0.00    -0.031 C 
ATOM     26  C   UNL     1      45.447 -21.817 -41.737  0.00  0.00    -0.060 C 
ATOM     27  C   UNL     1      44.295 -19.874 -42.820  0.00  0.00    -0.060 C 
ATOM     28  C   UNL     1      43.206 -21.004 -40.939  0.00  0.00    -0.048 C 
ATOM     29  C   UNL     1      43.237 -21.252 -39.460  0.00  0.00    -0.052 C 
ATOM     30  C   UNL     1      43.971 -20.066 -38.861  0.00  0.00    -0.047 C 
ATOM     31  C   UNL     1      45.686 -19.959 -39.505  0.00  0.00    -0.022 C 
ATOM     32  C   UNL     1      46.008 -20.406 -38.670  0.00  0.00    -0.059 C 
BRANCH  21  33
ATOM     33  C   UNL     1      46.982 -15.869 -39.040  0.00  0.00    +0.066 C 
BRANCH  33  34
ATOM     34  O   UNL     1      45.747 -15.280 -38.658  0.00  0.00    -0.391 OA
ATOM     35  H   UNL     1      45.448 -15.668 -37.821  0.00  0.00    +0.000 HD
ENDBRANCH  33  34
ENDBRANCH  21  33
ENDBRANCH  19  20
ENDBRANCH   1  19
TORSDOF 16
ENDMDL
MODEL 19
REMARK VINA RESULT:    -5.004      2.738      9.436
REMARK INTER + INTRA:         -12.493
REMARK INTER:                 -10.059
REMARK INTRA:                  -2.434
REMARK UNBOUND:                -2.955
REMARK  Name = cpd300.pdb
REMARK  22 active torsions:
REMARK  status: ('A' for Active; 'I' for Inactive)
REMARK    1  A    between atoms: C_1  and  C_2
REMARK    2  A    between atoms: C_2  and  N_3
REMARK    3  A    between atoms: N_3  and  C_4
REMARK    4  A    between atoms: N_3  and  C_6
REMARK    5  A    between atoms: C_4  and  C_5
REMARK    6  A    between atoms: C_6  and  C_7
REMARK    7  A    between atoms: C_7  and  C_8
REMARK    8  A    between atoms: C_8  and  C_9
REMARK    9  A    between atoms: C_9  and  C_10
REMARK   10  A    between atoms: C_10  and  O_11
REMARK   11  A    between atoms: O_11  and  C_12
REMARK   12  A    between atoms: C_12  and  C_14
REMARK   13  A    between atoms: C_14  and  C_15
REMARK   14  A    between atoms: C_15  and  C_16
REMARK   15  A    between atoms: C_15  and  C_17
REMARK   16  A    between atoms: C_17  and  C_18
REMARK   17  A    between atoms: C_18  and  C_19
REMARK   18  A    between atoms: C_20  and  C_21
REMARK   19  A    between atoms: C_21  and  O_22
REMARK   20  A    between atoms: C_26  and  C_27
REMARK   21  A    between atoms: C_26  and  C_28
REMARK   22  A    between atoms: C_32  and  C_33
REMARK                            x       y       z     vdW  Elec       q    Type
REMARK                         _______ _______ _______ _____ _____    ______ ____
ROOT
ATOM      1  C   UNL     1      39.671 -22.121 -35.785  0.00  0.00    -0.049 C 
ENDROOT
BRANCH   1   2
ATOM      2  C   UNL     1      39.581 -21.219 -37.042  0.00  0.00    -0.034 C 
ATOM      3  C   UNL     1      39.926 -21.965 -38.325  0.00  0.00    -0.062 C 
BRANCH   2   4
ATOM      4  C   UNL     1      40.614 -20.106 -36.727  0.00  0.00    +0.048 C 
BRANCH   4   5
ATOM      5  C   UNL     1      40.462 -18.676 -37.192  0.00  0.00    +0.307 C 
ATOM      6  O   UNL     1      39.500 -17.973 -36.918  0.00  0.00    -0.251 OA
BRANCH   5   7
ATOM      7  O   UNL     1      41.486 -18.232 -38.004  0.00  0.00    -0.465 OA
BRANCH   7   8
ATOM      8  C   UNL     1      42.686 -19.026 -38.132  0.00  0.00    +0.092 C 
BRANCH   8   9
ATOM      9  C   UNL     1      43.232 -19.115 -39.557  0.00  0.00    -0.018 C 
BRANCH   9  10
ATOM     10  C   UNL     1      43.122 -20.580 -40.007  0.00  0.00    -0.049 C 
BRANCH  10  11
ATOM     11  C   UNL     1      44.093 -20.996 -41.114  0.00  0.00    -0.040 C 
BRANCH  11  12
ATOM     12  C   UNL     1      45.122 -21.994 -40.540  0.00  0.00    -0.001 C 
BRANCH  12  13
ATOM     13  N   UNL     1      46.535 -21.689 -40.832  0.00  0.00    -0.303 N 
ATOM     14  H   UNL     1      46.543 -20.777 -41.291  0.00  0.00    +0.000 HD
BRANCH  13  15
ATOM     15  C   UNL     1      47.348 -21.591 -39.606  0.00  0.00    -0.004 C 
ATOM     16  C   UNL     1      46.686 -20.642 -38.616  0.00  0.00    -0.052 C 
ENDBRANCH  13  15
BRANCH  13  18
ATOM     17  C   UNL     1      48.574 -23.050 -41.432  0.00  0.00    -0.052 C 
ATOM     18  C   UNL     1      47.124 -22.692 -41.744  0.00  0.00    -0.004 C 
ENDBRANCH  13  18
ENDBRANCH  12  13
ENDBRANCH  11  12
ENDBRANCH  10  11
ENDBRANCH   9  10
ENDBRANCH   8   9
ENDBRANCH   7   8
ENDBRANCH   5   7
ENDBRANCH   4   5
ENDBRANCH   2   4
ENDBRANCH   1   2
BRANCH   1  19
ATOM     19  C   UNL     1      38.613 -22.179 -34.674  0.00  0.00    -0.046 C 
BRANCH  19  20
ATOM     20  C   UNL     1      38.661 -21.043 -33.471  0.00  0.00    -0.012 C 
ATOM     21  C   UNL     1      40.100 -21.137 -32.930  0.00  0.00    -0.045 C 
ATOM     22  C   UNL     1      40.813 -20.008 -32.953  0.00  0.00    -0.082 C 
ATOM     23  C   UNL     1      40.105 -18.750 -33.295  0.00  0.00    -0.031 C 
ATOM     24  C   UNL     1      38.515 -18.865 -32.978  0.00  0.00    -0.027 C 
ATOM     25  C   UNL     1      38.136 -17.231 -32.671  0.00  0.00    -0.031 C 
ATOM     26  C   UNL     1      38.267 -16.359 -33.946  0.00  0.00    -0.060 C 
ATOM     27  C   UNL     1      39.028 -16.588 -31.570  0.00  0.00    -0.060 C 
ATOM     28  C   UNL     1      36.693 -17.079 -32.123  0.00  0.00    -0.048 C 
ATOM     29  C   UNL     1      35.759 -18.032 -32.808  0.00  0.00    -0.052 C 
ATOM     30  C   UNL     1      36.477 -19.369 -32.826  0.00  0.00    -0.047 C 
ATOM     31  C   UNL     1      38.047 -19.260 -33.769  0.00  0.00    -0.022 C 
ATOM     32  C   UNL     1      37.579 -19.654 -34.560  0.00  0.00    -0.059 C 
BRANCH  21  33
ATOM     33  C   UNL     1      40.601 -22.454 -32.391  0.00  0.00    +0.066 C 
BRANCH  33  34
ATOM     34  O   UNL     1      42.010 -22.579 -32.524  0.00  0.00    -0.391 OA
ATOM     35  H   UNL     1      42.424 -21.709 -32.416  0.00  0.00    +0.000 HD
ENDBRANCH  33  34
ENDBRANCH  21  33
ENDBRANCH  19  20
ENDBRANCH   1  19
TORSDOF 16
ENDMDL
MODEL 20
REMARK VINA RESULT:    -4.992      2.976      4.533
REMARK INTER + INTRA:         -12.470
REMARK INTER:                 -10.112
REMARK INTRA:                  -2.358
REMARK UNBOUND:                -2.955
REMARK  Name = cpd300.pdb
REMARK  22 active torsions:
REMARK  status: ('A' for Active; 'I' for Inactive)
REMARK    1  A    between atoms: C_1  and  C_2
REMARK    2  A    between atoms: C_2  and  N_3
REMARK    3  A    between atoms: N_3  and  C_4
REMARK    4  A    between atoms: N_3  and  C_6
REMARK    5  A    between atoms: C_4  and  C_5
REMARK    6  A    between atoms: C_6  and  C_7
REMARK    7  A    between atoms: C_7  and  C_8
REMARK    8  A    between atoms: C_8  and  C_9
REMARK    9  A    between atoms: C_9  and  C_10
REMARK   10  A    between atoms: C_10  and  O_11
REMARK   11  A    between atoms: O_11  and  C_12
REMARK   12  A    between atoms: C_12  and  C_14
REMARK   13  A    between atoms: C_14  and  C_15
REMARK   14  A    between atoms: C_15  and  C_16
REMARK   15  A    between atoms: C_15  and  C_17
REMARK   16  A    between atoms: C_17  and  C_18
REMARK   17  A    between atoms: C_18  and  C_19
REMARK   18  A    between atoms: C_20  and  C_21
REMARK   19  A    between atoms: C_21  and  O_22
REMARK   20  A    between atoms: C_26  and  C_27
REMARK   21  A    between atoms: C_26  and  C_28
REMARK   22  A    between atoms: C_32  and  C_33
REMARK                            x       y       z     vdW  Elec       q    Type
REMARK                         _______ _______ _______ _____ _____    ______ ____
ROOT
ATOM      1  C   UNL     1      43.411 -18.081 -37.165  0.00  0.00    -0.049 C 
ENDROOT
BRANCH   1   2
ATOM      2  C   UNL     1      44.698 -18.760 -36.629  0.00  0.00    -0.034 C 
ATOM      3  C   UNL     1      44.429 -20.134 -36.027  0.00  0.00    -0.062 C 
BRANCH   2   4
ATOM      4  C   UNL     1      45.186 -17.749 -35.560  0.00  0.00    +0.048 C 
BRANCH   4   5
ATOM      5  C   UNL     1      45.632 -18.156 -34.174  0.00  0.00    +0.307 C 
ATOM      6  O   UNL     1      46.798 -18.366 -33.870  0.00  0.00    -0.251 OA
BRANCH   5   7
ATOM      7  O   UNL     1      44.599 -18.323 -33.273  0.00  0.00    -0.465 OA
BRANCH   7   8
ATOM      8  C   UNL     1      43.430 -17.481 -33.370  0.00  0.00    +0.092 C 
BRANCH   8   9
ATOM      9  C   UNL     1      42.165 -18.090 -32.763  0.00  0.00    -0.018 C 
BRANCH   9  10
ATOM     10  C   UNL     1      42.036 -19.525 -33.296  0.00  0.00    -0.049 C 
BRANCH  10  11
ATOM     11  C   UNL     1      41.139 -19.686 -34.524  0.00  0.00    -0.040 C 
BRANCH  11  12
ATOM     12  C   UNL     1      40.881 -21.188 -34.773  0.00  0.00    -0.001 C 
BRANCH  12  13
ATOM     13  N   UNL     1      39.951 -21.838 -33.833  0.00  0.00    -0.303 N 
ATOM     14  H   UNL     1      39.929 -21.252 -32.998  0.00  0.00    +0.000 HD
BRANCH  13  15
ATOM     15  C   UNL     1      38.580 -21.918 -34.371  0.00  0.00    -0.004 C 
ATOM     16  C   UNL     1      37.572 -21.923 -33.230  0.00  0.00    -0.052 C 
ENDBRANCH  13  15
BRANCH  13  18
ATOM     17  C   UNL     1      41.090 -23.267 -32.091  0.00  0.00    -0.052 C 
ATOM     18  C   UNL     1      40.420 -23.190 -33.460  0.00  0.00    -0.004 C 
ENDBRANCH  13  18
ENDBRANCH  12  13
ENDBRANCH  11  12
ENDBRANCH  10  11
ENDBRANCH   9  10
ENDBRANCH   8   9
ENDBRANCH   7   8
ENDBRANCH   5   7
ENDBRANCH   4   5
ENDBRANCH   2   4
ENDBRANCH   1   2
BRANCH   1  19
ATOM     19  C   UNL     1      42.916 -18.170 -38.615  0.00  0.00    -0.046 C 
BRANCH  19  20
ATOM     20  C   UNL     1      44.017 -18.463 -39.814  0.00  0.00    -0.012 C 
ATOM     21  C   UNL     1      45.106 -17.397 -39.586  0.00  0.00    -0.045 C 
ATOM     22  C   UNL     1      46.349 -17.852 -39.408  0.00  0.00    -0.082 C 
ATOM     23  C   UNL     1      46.597 -19.295 -39.648  0.00  0.00    -0.031 C 
ATOM     24  C   UNL     1      45.489 -19.923 -40.658  0.00  0.00    -0.027 C 
ATOM     25  C   UNL     1      46.388 -21.189 -41.364  0.00  0.00    -0.031 C 
ATOM     26  C   UNL     1      46.724 -22.299 -40.337  0.00  0.00    -0.060 C 
ATOM     27  C   UNL     1      47.728 -20.714 -41.997  0.00  0.00    -0.060 C 
ATOM     28  C   UNL     1      45.621 -21.835 -42.547  0.00  0.00    -0.048 C 
ATOM     29  C   UNL     1      44.154 -21.928 -42.245  0.00  0.00    -0.052 C 
ATOM     30  C   UNL     1      43.766 -20.575 -41.676  0.00  0.00    -0.047 C 
ATOM     31  C   UNL     1      44.692 -20.221 -40.132  0.00  0.00    -0.022 C 
ATOM     32  C   UNL     1      43.896 -20.519 -39.606  0.00  0.00    -0.059 C 
BRANCH  21  33
ATOM     33  C   UNL     1      44.724 -15.938 -39.605  0.00  0.00    +0.066 C 
BRANCH  33  34
ATOM     34  O   UNL     1      45.373 -15.235 -40.657  0.00  0.00    -0.391 OA
ATOM     35  H   UNL     1      44.944 -14.375 -40.783  0.00  0.00    +0.000 HD
ENDBRANCH  33  34
ENDBRANCH  21  33
ENDBRANCH  19  20
ENDBRANCH   1  19
TORSDOF 16
ENDMDL
