REMARK  Name = cpd125.pdb
REMARK  19 active torsions:
REMARK  status: ('A' for Active; 'I' for Inactive)
REMARK    1  A    between atoms: C_1  and  C_2
REMARK    2  A    between atoms: C_2  and  N_3
REMARK    3  A    between atoms: N_3  and  C_4
REMARK    4  A    between atoms: N_3  and  C_6
REMARK    5  A    between atoms: N_3  and  C_8
REMARK    6  A    between atoms: C_4  and  C_5
REMARK    7  A    between atoms: C_6  and  C_7
REMARK    8  A    between atoms: C_8  and  C_9
REMARK    9  A    between atoms: C_9  and  O_10
REMARK   10  A    between atoms: O_10  and  C_11
REMARK   11  A    between atoms: C_14  and  C_15
REMARK   12  A    between atoms: N_17  and  C_18
REMARK   13  A    between atoms: C_18  and  C_19
REMARK   14  A    between atoms: C_19  and  C_20
REMARK   15  A    between atoms: C_20  and  C_21
REMARK   16  A    between atoms: C_21  and  C_22
REMARK   17  A    between atoms: C_22  and  C_23
REMARK   18  A    between atoms: N_25  and  N_26
REMARK   19  A    between atoms: N_26  and  C_27
REMARK                            x       y       z     vdW  Elec       q    Type
REMARK                         _______ _______ _______ _____ _____    ______ ____
ROOT
ATOM      1  C   UNL     1      -6.918   8.590  -0.216  0.00  0.00    -0.051 C 
ENDROOT
BRANCH   1   2
ATOM      2  C   UNL     1      -6.021   7.357  -0.162  0.00  0.00    -0.037 C 
BRANCH   2   3
ATOM      3  C   UNL     1      -4.578   7.596  -0.580  0.00  0.00    +0.012 C 
BRANCH   3   6
ATOM      4  C   UNL     1      -3.719   5.378   0.026  0.00  0.00    +0.244 C 
ATOM      5  O   UNL     1      -3.689   5.632   1.225  0.00  0.00    -0.270 OA
ATOM      6  N   UNL     1      -3.982   6.321  -0.948  0.00  0.00    -0.311 N 
ATOM      7  H   UNL     1      -3.767   6.131  -1.890  0.00  0.00    +0.000 HD
BRANCH   4  11
ATOM      8  C   UNL     1      -2.831   1.351  -1.068  0.00  0.00    +0.120 A 
ATOM      9  C   UNL     1      -3.323   1.636   0.202  0.00  0.00    -0.019 A 
ATOM     10  C   UNL     1      -3.644   2.953   0.526  0.00  0.00    -0.046 A 
ATOM     11  C   UNL     1      -3.505   3.975  -0.427  0.00  0.00    +0.037 A 
ATOM     12  C   UNL     1      -3.127   3.650  -1.736  0.00  0.00    -0.046 A 
ATOM     13  C   UNL     1      -2.813   2.329  -2.062  0.00  0.00    -0.019 A 
BRANCH   8  14
ATOM     14  O   UNL     1      -2.301   0.109  -1.279  0.00  0.00    -0.494 OA
BRANCH  14  15
ATOM     15  C   UNL     1      -0.881   0.166  -1.512  0.00  0.00    +0.075 C 
BRANCH  15  16
ATOM     16  C   UNL     1       0.000   0.000   0.000  0.00  0.00    -0.053 C 
BRANCH  16  17
ATOM     17  N   UNL     1       1.000   0.000   0.000  0.00  0.00    +0.382 N 
BRANCH  17  18
ATOM     18  C   UNL     1       1.000   1.000   0.000  0.00  0.00    -0.091 C 
ATOM     19  C   UNL     1       0.053   2.406   0.128  0.00  0.00    -0.080 C 
ENDBRANCH  17  18
BRANCH  17  21
ATOM     20  C   UNL     1       0.801  -1.858   1.474  0.00  0.00    -0.080 C 
ATOM     21  C   UNL     1       1.000  -1.000   0.000  0.00  0.00    -0.091 C 
ENDBRANCH  17  21
BRANCH  17  22
ATOM     22  C   UNL     1       2.000   0.000   0.000  0.00  0.00    -0.091 C 
ATOM     23  C   UNL     1       3.320   1.158   0.143  0.00  0.00    -0.080 C 
ENDBRANCH  17  22
ENDBRANCH  16  17
ENDBRANCH  15  16
ENDBRANCH  14  15
ENDBRANCH   8  14
ENDBRANCH   4  11
ENDBRANCH   3   6
ENDBRANCH   2   3
ENDBRANCH   1   2
BRANCH   1  24
ATOM     24  C   UNL     1      -8.294   8.171   0.293  0.00  0.00    -0.045 C 
BRANCH  24  25
ATOM     25  C   UNL     1      -9.425   9.139  -0.035  0.00  0.00    +0.025 C 
BRANCH  25  26
ATOM     26  C   UNL     1     -10.691   8.644   0.638  0.00  0.00    +0.229 C 
ATOM     27  O   UNL     1     -11.254   9.265   1.536  0.00  0.00    -0.274 OA
ATOM     28  N   UNL     1     -11.110   7.398   0.189  0.00  0.00    -0.236 N 
ATOM     29  H   UNL     1     -11.022   7.113  -0.749  0.00  0.00    +0.000 HD
BRANCH  28  30
ATOM     30  N   UNL     1     -11.676   6.570   1.193  0.00  0.00    -0.264 N 
ATOM     31  H   UNL     1     -11.740   6.813   2.145  0.00  0.00    +0.000 HD
BRANCH  30  32
ATOM     32  C   UNL     1     -12.140   5.339   0.642  0.00  0.00    +0.058 A 
ATOM     33  C   UNL     1     -13.485   5.194   0.255  0.00  0.00    -0.003 A 
ATOM     34  C   UNL     1     -13.867   3.968  -0.293  0.00  0.00    +0.047 A 
ATOM     35  N   UNL     1     -12.996   2.959  -0.533  0.00  0.00    -0.251 NA
ATOM     36  C   UNL     1     -11.709   3.112  -0.198  0.00  0.00    +0.073 A 
ATOM     37  C   UNL     1     -10.833   2.063  -0.453  0.00  0.00    -0.036 A 
ATOM     38  C   UNL     1      -9.477   2.133  -0.126  0.00  0.00    -0.060 A 
ATOM     39  C   UNL     1      -8.978   3.276   0.481  0.00  0.00    -0.061 A 
ATOM     40  C   UNL     1      -9.840   4.339   0.748  0.00  0.00    -0.051 A 
ATOM     41  C   UNL     1     -11.214   4.284   0.402  0.00  0.00    +0.023 A 
ATOM     42  C   UNL     1     -15.290   3.698  -0.713  0.00  0.00    -0.010 C 
ATOM     43  C   UNL     1     -16.296   4.652  -0.079  0.00  0.00    -0.047 C 
ATOM     44  C   UNL     1     -15.819   6.086  -0.248  0.00  0.00    -0.049 C 
ATOM     45  C   UNL     1     -14.493   6.295   0.480  0.00  0.00    -0.024 C 
ENDBRANCH  30  32
ENDBRANCH  28  30
ENDBRANCH  25  26
ENDBRANCH  24  25
ENDBRANCH   1  24
TORSDOF 16
