MODEL 1
REMARK VINA RESULT:    -9.458      0.000      0.000
REMARK INTER + INTRA:         -11.603
REMARK INTER:                 -11.117
REMARK INTRA:                  -0.487
REMARK UNBOUND:                -0.487
REMARK  Name = cpd192.pdb
REMARK  9 active torsions:
REMARK  status: ('A' for Active; 'I' for Inactive)
REMARK    1  A    between atoms: C_1  and  N_2
REMARK    2  A    between atoms: N_2  and  C_3
REMARK    3  A    between atoms: C_6  and  C_7
REMARK    4  A    between atoms: C_15  and  C_16
REMARK    5  A    between atoms: C_17  and  C_18
REMARK    6  A    between atoms: C_18  and  C_19
REMARK    7  A    between atoms: C_18  and  N_20
REMARK    8  A    between atoms: N_20  and  C_21
REMARK    9  A    between atoms: C_22  and  C_23
REMARK                            x       y       z     vdW  Elec       q    Type
REMARK                         _______ _______ _______ _____ _____    ______ ____
ROOT
ATOM      1  C   UNL     1      40.356 -37.607 -29.460  0.00  0.00    +0.008 C 
ATOM      2  C   UNL     1      39.950 -37.029 -30.823  0.00  0.00    -0.037 C 
ATOM      3  C   UNL     1      38.726 -36.110 -30.728  0.00  0.00    -0.046 C 
ATOM      4  C   UNL     1      37.497 -36.782 -30.058  0.00  0.00    -0.026 C 
ATOM      5  C   UNL     1      36.991 -37.930 -30.974  0.00  0.00    -0.059 C 
ATOM      6  C   UNL     1      37.956 -37.319 -28.670  0.00  0.00    -0.034 C 
ATOM      7  C   UNL     1      36.797 -37.954 -27.895  0.00  0.00    -0.049 C 
ATOM      8  C   UNL     1      35.674 -36.945 -27.677  0.00  0.00    -0.049 C 
ATOM      9  C   UNL     1      35.181 -36.279 -28.980  0.00  0.00    -0.034 C 
ATOM     10  C   UNL     1      36.362 -35.717 -29.811  0.00  0.00    -0.032 C 
ATOM     11  C   UNL     1      35.877 -35.024 -31.102  0.00  0.00    -0.049 C 
ATOM     12  C   UNL     1      34.377 -34.733 -31.134  0.00  0.00    -0.047 C 
ATOM     13  C   UNL     1      33.827 -34.178 -29.806  0.00  0.00    -0.024 C 
ATOM     14  C   UNL     1      34.452 -32.795 -29.523  0.00  0.00    -0.059 C 
ATOM     15  C   UNL     1      32.263 -34.049 -29.779  0.00  0.00    -0.017 C 
ATOM     16  C   UNL     1      31.824 -35.451 -29.357  0.00  0.00    -0.048 C 
ATOM     17  C   UNL     1      32.787 -35.782 -28.227  0.00  0.00    -0.049 C 
ATOM     18  C   UNL     1      34.142 -35.171 -28.639  0.00  0.00    -0.032 C 
ATOM     19  C   UNL     1      39.157 -38.273 -28.759  0.00  0.00    -0.034 C 
ENDROOT
BRANCH   1  21
ATOM     20  C   UNL     1      42.304 -38.370 -30.721  0.00  0.00    -0.016 C 
ATOM     21  N   UNL     1      41.433 -38.602 -29.577  0.00  0.00    -0.316 N 
ATOM     22  H   UNL     1      41.998 -38.570 -28.728  0.00  0.00    +0.000 HD
ATOM     23  H   UNL     1      40.993 -39.512 -29.709  0.00  0.00    +0.000 HD
ENDBRANCH   1  21
BRANCH  15  24
ATOM     24  C   UNL     1      31.592 -33.452 -31.049  0.00  0.00    +0.026 C 
ATOM     25  C   UNL     1      31.074 -34.466 -32.076  0.00  0.00    -0.046 C 
BRANCH  24  26
ATOM     26  N   UNL     1      30.556 -32.444 -30.708  0.00  0.00    -0.302 N 
ATOM     27  C   UNL     1      29.187 -32.945 -30.632  0.00  0.00    +0.003 C 
ATOM     28  C   UNL     1      30.894 -31.102 -30.559  0.00  0.00    +0.212 C 
ATOM     29  C   UNL     1      29.783 -30.137 -30.232  0.00  0.00    +0.012 C 
ATOM     30  O   UNL     1      32.043 -30.677 -30.675  0.00  0.00    -0.276 OA
ENDBRANCH  24  26
ENDBRANCH  15  24
TORSDOF 3
ENDMDL
MODEL 2
REMARK VINA RESULT:    -7.901     17.035     18.567
REMARK INTER + INTRA:          -9.773
REMARK INTER:                  -9.230
REMARK INTRA:                  -0.542
REMARK UNBOUND:                -0.487
REMARK  Name = cpd192.pdb
REMARK  9 active torsions:
REMARK  status: ('A' for Active; 'I' for Inactive)
REMARK    1  A    between atoms: C_1  and  N_2
REMARK    2  A    between atoms: N_2  and  C_3
REMARK    3  A    between atoms: C_6  and  C_7
REMARK    4  A    between atoms: C_15  and  C_16
REMARK    5  A    between atoms: C_17  and  C_18
REMARK    6  A    between atoms: C_18  and  C_19
REMARK    7  A    between atoms: C_18  and  N_20
REMARK    8  A    between atoms: N_20  and  C_21
REMARK    9  A    between atoms: C_22  and  C_23
REMARK                            x       y       z     vdW  Elec       q    Type
REMARK                         _______ _______ _______ _____ _____    ______ ____
ROOT
ATOM      1  C   UNL     1      47.139 -21.760 -41.120  0.00  0.00    +0.008 C 
ATOM      2  C   UNL     1      47.257 -21.079 -39.749  0.00  0.00    -0.037 C 
ATOM      3  C   UNL     1      45.994 -21.255 -38.898  0.00  0.00    -0.046 C 
ATOM      4  C   UNL     1      44.697 -20.780 -39.608  0.00  0.00    -0.026 C 
ATOM      5  C   UNL     1      44.766 -19.240 -39.802  0.00  0.00    -0.059 C 
ATOM      6  C   UNL     1      44.611 -21.524 -40.974  0.00  0.00    -0.034 C 
ATOM      7  C   UNL     1      43.330 -21.170 -41.734  0.00  0.00    -0.049 C 
ATOM      8  C   UNL     1      42.096 -21.524 -40.911  0.00  0.00    -0.049 C 
ATOM      9  C   UNL     1      42.099 -20.906 -39.497  0.00  0.00    -0.034 C 
ATOM     10  C   UNL     1      43.432 -21.185 -38.759  0.00  0.00    -0.032 C 
ATOM     11  C   UNL     1      43.435 -20.594 -37.333  0.00  0.00    -0.049 C 
ATOM     12  C   UNL     1      42.056 -20.174 -36.824  0.00  0.00    -0.047 C 
ATOM     13  C   UNL     1      40.942 -21.189 -37.148  0.00  0.00    -0.024 C 
ATOM     14  C   UNL     1      41.211 -22.510 -36.398  0.00  0.00    -0.059 C 
ATOM     15  C   UNL     1      39.502 -20.677 -36.788  0.00  0.00    -0.017 C 
ATOM     16  C   UNL     1      39.115 -19.878 -38.033  0.00  0.00    -0.048 C 
ATOM     17  C   UNL     1      39.564 -20.783 -39.169  0.00  0.00    -0.049 C 
ATOM     18  C   UNL     1      40.877 -21.438 -38.691  0.00  0.00    -0.032 C 
ATOM     19  C   UNL     1      45.856 -21.321 -41.851  0.00  0.00    -0.034 C 
ENDROOT
BRANCH   1  21
ATOM     20  C   UNL     1      48.376 -20.058 -42.363  0.00  0.00    -0.016 C 
ATOM     21  N   UNL     1      48.289 -21.463 -41.989  0.00  0.00    -0.316 N 
ATOM     22  H   UNL     1      49.144 -21.720 -41.495  0.00  0.00    +0.000 HD
ATOM     23  H   UNL     1      48.168 -21.999 -42.848  0.00  0.00    +0.000 HD
ENDBRANCH   1  21
BRANCH  15  24
ATOM     24  C   UNL     1      39.341 -19.966 -35.414  0.00  0.00    +0.026 C 
ATOM     25  C   UNL     1      39.394 -18.434 -35.439  0.00  0.00    -0.046 C 
BRANCH  24  26
ATOM     26  N   UNL     1      38.152 -20.458 -34.671  0.00  0.00    -0.302 N 
ATOM     27  C   UNL     1      36.888 -19.806 -34.999  0.00  0.00    +0.003 C 
ATOM     28  C   UNL     1      38.287 -21.420 -33.675  0.00  0.00    +0.212 C 
ATOM     29  C   UNL     1      37.037 -21.854 -32.952  0.00  0.00    +0.012 C 
ATOM     30  O   UNL     1      39.365 -21.928 -33.367  0.00  0.00    -0.276 OA
ENDBRANCH  24  26
ENDBRANCH  15  24
TORSDOF 3
ENDMDL
MODEL 3
REMARK VINA RESULT:    -7.466      1.588      2.296
REMARK INTER + INTRA:          -9.262
REMARK INTER:                  -8.794
REMARK INTRA:                  -0.468
REMARK UNBOUND:                -0.487
REMARK  Name = cpd192.pdb
REMARK  9 active torsions:
REMARK  status: ('A' for Active; 'I' for Inactive)
REMARK    1  A    between atoms: C_1  and  N_2
REMARK    2  A    between atoms: N_2  and  C_3
REMARK    3  A    between atoms: C_6  and  C_7
REMARK    4  A    between atoms: C_15  and  C_16
REMARK    5  A    between atoms: C_17  and  C_18
REMARK    6  A    between atoms: C_18  and  C_19
REMARK    7  A    between atoms: C_18  and  N_20
REMARK    8  A    between atoms: N_20  and  C_21
REMARK    9  A    between atoms: C_22  and  C_23
REMARK                            x       y       z     vdW  Elec       q    Type
REMARK                         _______ _______ _______ _____ _____    ______ ____
ROOT
ATOM      1  C   UNL     1      38.810 -36.255 -30.654  0.00  0.00    +0.008 C 
ATOM      2  C   UNL     1      38.243 -35.624 -31.934  0.00  0.00    -0.037 C 
ATOM      3  C   UNL     1      37.047 -34.707 -31.654  0.00  0.00    -0.046 C 
ATOM      4  C   UNL     1      35.905 -35.402 -30.864  0.00  0.00    -0.026 C 
ATOM      5  C   UNL     1      35.282 -36.512 -31.754  0.00  0.00    -0.059 C 
ATOM      6  C   UNL     1      36.526 -35.993 -29.563  0.00  0.00    -0.034 C 
ATOM      7  C   UNL     1      35.467 -36.654 -28.677  0.00  0.00    -0.049 C 
ATOM      8  C   UNL     1      34.387 -35.651 -28.285  0.00  0.00    -0.049 C 
ATOM      9  C   UNL     1      33.742 -34.935 -29.490  0.00  0.00    -0.034 C 
ATOM     10  C   UNL     1      34.816 -34.344 -30.438  0.00  0.00    -0.032 C 
ATOM     11  C   UNL     1      34.181 -33.601 -31.633  0.00  0.00    -0.049 C 
ATOM     12  C   UNL     1      32.690 -33.305 -31.469  0.00  0.00    -0.047 C 
ATOM     13  C   UNL     1      32.312 -32.800 -30.063  0.00  0.00    -0.024 C 
ATOM     14  C   UNL     1      32.976 -31.431 -29.807  0.00  0.00    -0.059 C 
ATOM     15  C   UNL     1      30.763 -32.669 -29.839  0.00  0.00    -0.017 C 
ATOM     16  C   UNL     1      30.370 -34.086 -29.419  0.00  0.00    -0.048 C 
ATOM     17  C   UNL     1      31.462 -34.462 -28.431  0.00  0.00    -0.049 C 
ATOM     18  C   UNL     1      32.761 -33.838 -28.983  0.00  0.00    -0.032 C 
ATOM     19  C   UNL     1      37.701 -36.945 -29.836  0.00  0.00    -0.034 C 
ENDROOT
BRANCH   1  21
ATOM     20  C   UNL     1      41.166 -36.649 -31.165  0.00  0.00    -0.016 C 
ATOM     21  N   UNL     1      39.857 -37.247 -30.940  0.00  0.00    -0.316 N 
ATOM     22  H   UNL     1      39.925 -37.885 -30.147  0.00  0.00    +0.000 HD
ATOM     23  H   UNL     1      39.592 -37.730 -31.798  0.00  0.00    +0.000 HD
ENDBRANCH   1  21
BRANCH  15  24
ATOM     24  C   UNL     1      29.946 -32.022 -30.993  0.00  0.00    +0.026 C 
ATOM     25  C   UNL     1      28.879 -32.911 -31.642  0.00  0.00    -0.046 C 
BRANCH  24  26
ATOM     26  N   UNL     1      29.392 -30.699 -30.607  0.00  0.00    -0.302 N 
ATOM     27  C   UNL     1      29.122 -30.518 -29.185  0.00  0.00    +0.003 C 
ATOM     28  C   UNL     1      29.085 -29.749 -31.577  0.00  0.00    +0.212 C 
ATOM     29  C   UNL     1      28.507 -28.438 -31.108  0.00  0.00    +0.012 C 
ATOM     30  O   UNL     1      29.266 -29.928 -32.781  0.00  0.00    -0.276 OA
ENDBRANCH  24  26
ENDBRANCH  15  24
TORSDOF 3
ENDMDL
MODEL 4
REMARK VINA RESULT:    -7.297      3.157      8.464
REMARK INTER + INTRA:          -9.064
REMARK INTER:                  -8.441
REMARK INTRA:                  -0.622
REMARK UNBOUND:                -0.487
REMARK  Name = cpd192.pdb
REMARK  9 active torsions:
REMARK  status: ('A' for Active; 'I' for Inactive)
REMARK    1  A    between atoms: C_1  and  N_2
REMARK    2  A    between atoms: N_2  and  C_3
REMARK    3  A    between atoms: C_6  and  C_7
REMARK    4  A    between atoms: C_15  and  C_16
REMARK    5  A    between atoms: C_17  and  C_18
REMARK    6  A    between atoms: C_18  and  C_19
REMARK    7  A    between atoms: C_18  and  N_20
REMARK    8  A    between atoms: N_20  and  C_21
REMARK    9  A    between atoms: C_22  and  C_23
REMARK                            x       y       z     vdW  Elec       q    Type
REMARK                         _______ _______ _______ _____ _____    ______ ____
ROOT
ATOM      1  C   UNL     1      30.717 -30.857 -29.678  0.00  0.00    +0.008 C 
ATOM      2  C   UNL     1      29.981 -32.159 -30.022  0.00  0.00    -0.037 C 
ATOM      3  C   UNL     1      30.790 -33.406 -29.645  0.00  0.00    -0.046 C 
ATOM      4  C   UNL     1      32.213 -33.431 -30.265  0.00  0.00    -0.026 C 
ATOM      5  C   UNL     1      32.087 -33.560 -31.807  0.00  0.00    -0.059 C 
ATOM      6  C   UNL     1      32.925 -32.107 -29.858  0.00  0.00    -0.034 C 
ATOM      7  C   UNL     1      34.367 -32.055 -30.373  0.00  0.00    -0.049 C 
ATOM      8  C   UNL     1      35.178 -33.227 -29.829  0.00  0.00    -0.049 C 
ATOM      9  C   UNL     1      34.533 -34.603 -30.101  0.00  0.00    -0.034 C 
ATOM     10  C   UNL     1      33.046 -34.628 -29.666  0.00  0.00    -0.032 C 
ATOM     11  C   UNL     1      32.400 -36.008 -29.908  0.00  0.00    -0.049 C 
ATOM     12  C   UNL     1      33.400 -37.130 -30.190  0.00  0.00    -0.047 C 
ATOM     13  C   UNL     1      34.637 -37.100 -29.272  0.00  0.00    -0.024 C 
ATOM     14  C   UNL     1      34.208 -37.364 -27.813  0.00  0.00    -0.059 C 
ATOM     15  C   UNL     1      35.745 -38.136 -29.677  0.00  0.00    -0.017 C 
ATOM     16  C   UNL     1      36.535 -37.374 -30.742  0.00  0.00    -0.048 C 
ATOM     17  C   UNL     1      36.682 -35.991 -30.129  0.00  0.00    -0.049 C 
ATOM     18  C   UNL     1      35.357 -35.716 -29.389  0.00  0.00    -0.032 C 
ATOM     19  C   UNL     1      32.141 -30.850 -30.268  0.00  0.00    -0.034 C 
ENDROOT
BRANCH   1  21
ATOM     20  C   UNL     1      29.133 -29.956 -31.305  0.00  0.00    -0.016 C 
ATOM     21  N   UNL     1      30.007 -29.668 -30.176  0.00  0.00    -0.316 N 
ATOM     22  H   UNL     1      29.442 -29.287 -29.418  0.00  0.00    +0.000 HD
ATOM     23  H   UNL     1      30.712 -29.006 -30.499  0.00  0.00    +0.000 HD
ENDBRANCH   1  21
BRANCH  15  24
ATOM     24  C   UNL     1      35.258 -39.565 -30.047  0.00  0.00    +0.026 C 
ATOM     25  C   UNL     1      35.633 -40.062 -31.448  0.00  0.00    -0.046 C 
BRANCH  24  26
ATOM     26  N   UNL     1      35.612 -40.561 -29.003  0.00  0.00    -0.302 N 
ATOM     27  C   UNL     1      37.010 -40.568 -28.585  0.00  0.00    +0.003 C 
ATOM     28  C   UNL     1      34.663 -41.467 -28.537  0.00  0.00    +0.212 C 
ATOM     29  C   UNL     1      35.104 -42.459 -27.490  0.00  0.00    +0.012 C 
ATOM     30  O   UNL     1      33.498 -41.489 -28.931  0.00  0.00    -0.276 OA
ENDBRANCH  24  26
ENDBRANCH  15  24
TORSDOF 3
ENDMDL
MODEL 5
REMARK VINA RESULT:    -7.260     22.008     23.486
REMARK INTER + INTRA:          -9.019
REMARK INTER:                  -8.370
REMARK INTRA:                  -0.649
REMARK UNBOUND:                -0.487
REMARK  Name = cpd192.pdb
REMARK  9 active torsions:
REMARK  status: ('A' for Active; 'I' for Inactive)
REMARK    1  A    between atoms: C_1  and  N_2
REMARK    2  A    between atoms: N_2  and  C_3
REMARK    3  A    between atoms: C_6  and  C_7
REMARK    4  A    between atoms: C_15  and  C_16
REMARK    5  A    between atoms: C_17  and  C_18
REMARK    6  A    between atoms: C_18  and  C_19
REMARK    7  A    between atoms: C_18  and  N_20
REMARK    8  A    between atoms: N_20  and  C_21
REMARK    9  A    between atoms: C_22  and  C_23
REMARK                            x       y       z     vdW  Elec       q    Type
REMARK                         _______ _______ _______ _____ _____    ______ ____
ROOT
ATOM      1  C   UNL     1      46.661 -22.788 -40.750  0.00  0.00    +0.008 C 
ATOM      2  C   UNL     1      47.643 -21.903 -39.969  0.00  0.00    -0.037 C 
ATOM      3  C   UNL     1      47.024 -20.561 -39.562  0.00  0.00    -0.046 C 
ATOM      4  C   UNL     1      46.437 -19.762 -40.757  0.00  0.00    -0.026 C 
ATOM      5  C   UNL     1      47.599 -19.331 -41.692  0.00  0.00    -0.059 C 
ATOM      6  C   UNL     1      45.426 -20.692 -41.492  0.00  0.00    -0.034 C 
ATOM      7  C   UNL     1      44.742 -19.976 -42.660  0.00  0.00    -0.049 C 
ATOM      8  C   UNL     1      43.995 -18.738 -42.174  0.00  0.00    -0.049 C 
ATOM      9  C   UNL     1      44.875 -17.767 -41.359  0.00  0.00    -0.034 C 
ATOM     10  C   UNL     1      45.641 -18.506 -40.233  0.00  0.00    -0.032 C 
ATOM     11  C   UNL     1      46.503 -17.538 -39.394  0.00  0.00    -0.049 C 
ATOM     12  C   UNL     1      46.176 -16.060 -39.606  0.00  0.00    -0.047 C 
ATOM     13  C   UNL     1      44.664 -15.764 -39.663  0.00  0.00    -0.024 C 
ATOM     14  C   UNL     1      44.022 -16.078 -38.295  0.00  0.00    -0.059 C 
ATOM     15  C   UNL     1      44.329 -14.282 -40.059  0.00  0.00    -0.017 C 
ATOM     16  C   UNL     1      44.362 -14.334 -41.587  0.00  0.00    -0.048 C 
ATOM     17  C   UNL     1      43.602 -15.614 -41.898  0.00  0.00    -0.049 C 
ATOM     18  C   UNL     1      43.995 -16.615 -40.792  0.00  0.00    -0.032 C 
ATOM     19  C   UNL     1      46.048 -22.024 -41.939  0.00  0.00    -0.034 C 
ENDROOT
BRANCH   1  21
ATOM     20  C   UNL     1      47.742 -23.880 -42.649  0.00  0.00    -0.016 C 
ATOM     21  N   UNL     1      47.302 -24.007 -41.267  0.00  0.00    -0.316 N 
ATOM     22  H   UNL     1      48.114 -24.218 -40.686  0.00  0.00    +0.000 HD
ATOM     23  H   UNL     1      46.607 -24.753 -41.237  0.00  0.00    +0.000 HD
ENDBRANCH   1  21
BRANCH  15  24
ATOM     24  C   UNL     1      45.174 -13.171 -39.372  0.00  0.00    +0.026 C 
ATOM     25  C   UNL     1      45.429 -11.909 -40.204  0.00  0.00    -0.046 C 
BRANCH  24  26
ATOM     26  N   UNL     1      44.657 -12.837 -38.020  0.00  0.00    -0.302 N 
ATOM     27  C   UNL     1      43.326 -12.241 -37.982  0.00  0.00    +0.003 C 
ATOM     28  C   UNL     1      45.453 -13.017 -36.893  0.00  0.00    +0.212 C 
ATOM     29  C   UNL     1      44.865 -12.637 -35.558  0.00  0.00    +0.012 C 
ATOM     30  O   UNL     1      46.596 -13.472 -36.937  0.00  0.00    -0.276 OA
ENDBRANCH  24  26
ENDBRANCH  15  24
TORSDOF 3
ENDMDL
MODEL 6
REMARK VINA RESULT:    -7.049      2.591      3.313
REMARK INTER + INTRA:          -8.772
REMARK INTER:                  -8.113
REMARK INTRA:                  -0.659
REMARK UNBOUND:                -0.487
REMARK  Name = cpd192.pdb
REMARK  9 active torsions:
REMARK  status: ('A' for Active; 'I' for Inactive)
REMARK    1  A    between atoms: C_1  and  N_2
REMARK    2  A    between atoms: N_2  and  C_3
REMARK    3  A    between atoms: C_6  and  C_7
REMARK    4  A    between atoms: C_15  and  C_16
REMARK    5  A    between atoms: C_17  and  C_18
REMARK    6  A    between atoms: C_18  and  C_19
REMARK    7  A    between atoms: C_18  and  N_20
REMARK    8  A    between atoms: N_20  and  C_21
REMARK    9  A    between atoms: C_22  and  C_23
REMARK                            x       y       z     vdW  Elec       q    Type
REMARK                         _______ _______ _______ _____ _____    ______ ____
ROOT
ATOM      1  C   UNL     1      39.205 -36.126 -31.030  0.00  0.00    +0.008 C 
ATOM      2  C   UNL     1      38.025 -36.007 -32.004  0.00  0.00    -0.037 C 
ATOM      3  C   UNL     1      36.693 -35.763 -31.284  0.00  0.00    -0.046 C 
ATOM      4  C   UNL     1      36.371 -36.828 -30.201  0.00  0.00    -0.026 C 
ATOM      5  C   UNL     1      36.137 -38.197 -30.896  0.00  0.00    -0.059 C 
ATOM      6  C   UNL     1      37.583 -36.884 -29.223  0.00  0.00    -0.034 C 
ATOM      7  C   UNL     1      37.342 -37.868 -28.075  0.00  0.00    -0.049 C 
ATOM      8  C   UNL     1      36.098 -37.481 -27.282  0.00  0.00    -0.049 C 
ATOM      9  C   UNL     1      34.836 -37.317 -28.155  0.00  0.00    -0.034 C 
ATOM     10  C   UNL     1      35.104 -36.394 -29.371  0.00  0.00    -0.032 C 
ATOM     11  C   UNL     1      33.840 -36.201 -30.235  0.00  0.00    -0.049 C 
ATOM     12  C   UNL     1      32.543 -36.653 -29.563  0.00  0.00    -0.047 C 
ATOM     13  C   UNL     1      32.436 -36.235 -28.083  0.00  0.00    -0.024 C 
ATOM     14  C   UNL     1      32.373 -34.697 -27.982  0.00  0.00    -0.059 C 
ATOM     15  C   UNL     1      31.195 -36.850 -27.345  0.00  0.00    -0.017 C 
ATOM     16  C   UNL     1      31.717 -38.218 -26.905  0.00  0.00    -0.048 C 
ATOM     17  C   UNL     1      33.101 -37.894 -26.365  0.00  0.00    -0.049 C 
ATOM     18  C   UNL     1      33.661 -36.787 -27.282  0.00  0.00    -0.032 C 
ATOM     19  C   UNL     1      38.917 -37.167 -29.932  0.00  0.00    -0.034 C 
ENDROOT
BRANCH   1  21
ATOM     20  C   UNL     1      41.420 -37.135 -30.822  0.00  0.00    -0.016 C 
ATOM     21  N   UNL     1      40.452 -36.507 -31.711  0.00  0.00    -0.316 N 
ATOM     22  H   UNL     1      40.225 -37.163 -32.459  0.00  0.00    +0.000 HD
ATOM     23  H   UNL     1      40.877 -35.652 -32.068  0.00  0.00    +0.000 HD
ENDBRANCH   1  21
BRANCH  15  24
ATOM     24  C   UNL     1      29.845 -36.825 -28.116  0.00  0.00    +0.026 C 
ATOM     25  C   UNL     1      29.268 -38.190 -28.507  0.00  0.00    -0.046 C 
BRANCH  24  26
ATOM     26  N   UNL     1      28.831 -35.980 -27.433  0.00  0.00    -0.302 N 
ATOM     27  C   UNL     1      28.149 -36.601 -26.302  0.00  0.00    +0.003 C 
ATOM     28  C   UNL     1      28.519 -34.714 -27.921  0.00  0.00    +0.212 C 
ATOM     29  C   UNL     1      27.466 -33.925 -27.185  0.00  0.00    +0.012 C 
ATOM     30  O   UNL     1      29.061 -34.216 -28.907  0.00  0.00    -0.276 OA
ENDBRANCH  24  26
ENDBRANCH  15  24
TORSDOF 3
ENDMDL
MODEL 7
REMARK VINA RESULT:    -6.901     17.057     18.737
REMARK INTER + INTRA:          -8.598
REMARK INTER:                  -7.925
REMARK INTRA:                  -0.673
REMARK UNBOUND:                -0.487
REMARK  Name = cpd192.pdb
REMARK  9 active torsions:
REMARK  status: ('A' for Active; 'I' for Inactive)
REMARK    1  A    between atoms: C_1  and  N_2
REMARK    2  A    between atoms: N_2  and  C_3
REMARK    3  A    between atoms: C_6  and  C_7
REMARK    4  A    between atoms: C_15  and  C_16
REMARK    5  A    between atoms: C_17  and  C_18
REMARK    6  A    between atoms: C_18  and  C_19
REMARK    7  A    between atoms: C_18  and  N_20
REMARK    8  A    between atoms: N_20  and  C_21
REMARK    9  A    between atoms: C_22  and  C_23
REMARK                            x       y       z     vdW  Elec       q    Type
REMARK                         _______ _______ _______ _____ _____    ______ ____
ROOT
ATOM      1  C   UNL     1      46.115 -20.138 -41.235  0.00  0.00    +0.008 C 
ATOM      2  C   UNL     1      46.400 -20.956 -39.967  0.00  0.00    -0.037 C 
ATOM      3  C   UNL     1      45.134 -21.213 -39.141  0.00  0.00    -0.046 C 
ATOM      4  C   UNL     1      44.365 -19.918 -38.766  0.00  0.00    -0.026 C 
ATOM      5  C   UNL     1      45.240 -19.077 -37.796  0.00  0.00    -0.059 C 
ATOM      6  C   UNL     1      44.073 -19.146 -40.087  0.00  0.00    -0.034 C 
ATOM      7  C   UNL     1      43.261 -17.873 -39.834  0.00  0.00    -0.049 C 
ATOM      8  C   UNL     1      41.932 -18.202 -39.163  0.00  0.00    -0.049 C 
ATOM      9  C   UNL     1      42.082 -19.038 -37.874  0.00  0.00    -0.034 C 
ATOM     10  C   UNL     1      42.980 -20.279 -38.105  0.00  0.00    -0.032 C 
ATOM     11  C   UNL     1      43.114 -21.137 -36.829  0.00  0.00    -0.049 C 
ATOM     12  C   UNL     1      42.099 -20.801 -35.736  0.00  0.00    -0.047 C 
ATOM     13  C   UNL     1      40.670 -20.575 -36.268  0.00  0.00    -0.024 C 
ATOM     14  C   UNL     1      40.126 -21.889 -36.868  0.00  0.00    -0.059 C 
ATOM     15  C   UNL     1      39.668 -20.054 -35.178  0.00  0.00    -0.017 C 
ATOM     16  C   UNL     1      39.903 -18.544 -35.208  0.00  0.00    -0.048 C 
ATOM     17  C   UNL     1      39.955 -18.240 -36.697  0.00  0.00    -0.049 C 
ATOM     18  C   UNL     1      40.674 -19.441 -37.346  0.00  0.00    -0.032 C 
ATOM     19  C   UNL     1      45.341 -18.848 -40.903  0.00  0.00    -0.034 C 
ENDROOT
BRANCH   1  21
ATOM     20  C   UNL     1      48.380 -20.791 -41.875  0.00  0.00    -0.016 C 
ATOM     21  N   UNL     1      47.349 -19.766 -41.945  0.00  0.00    -0.316 N 
ATOM     22  H   UNL     1      47.121 -19.601 -42.926  0.00  0.00    +0.000 HD
ATOM     23  H   UNL     1      47.719 -18.930 -41.493  0.00  0.00    +0.000 HD
ENDBRANCH   1  21
BRANCH  15  24
ATOM     24  C   UNL     1      39.731 -20.750 -33.788  0.00  0.00    +0.026 C 
ATOM     25  C   UNL     1      39.619 -19.828 -32.568  0.00  0.00    -0.046 C 
BRANCH  24  26
ATOM     26  N   UNL     1      38.786 -21.892 -33.695  0.00  0.00    -0.302 N 
ATOM     27  C   UNL     1      37.375 -21.537 -33.586  0.00  0.00    +0.003 C 
ATOM     28  C   UNL     1      39.258 -23.200 -33.636  0.00  0.00    +0.212 C 
ATOM     29  C   UNL     1      38.238 -24.304 -33.524  0.00  0.00    +0.012 C 
ATOM     30  O   UNL     1      40.453 -23.490 -33.677  0.00  0.00    -0.276 OA
ENDBRANCH  24  26
ENDBRANCH  15  24
TORSDOF 3
ENDMDL
MODEL 8
REMARK VINA RESULT:    -6.748      3.564      8.186
REMARK INTER + INTRA:          -8.418
REMARK INTER:                  -7.741
REMARK INTRA:                  -0.677
REMARK UNBOUND:                -0.487
REMARK  Name = cpd192.pdb
REMARK  9 active torsions:
REMARK  status: ('A' for Active; 'I' for Inactive)
REMARK    1  A    between atoms: C_1  and  N_2
REMARK    2  A    between atoms: N_2  and  C_3
REMARK    3  A    between atoms: C_6  and  C_7
REMARK    4  A    between atoms: C_15  and  C_16
REMARK    5  A    between atoms: C_17  and  C_18
REMARK    6  A    between atoms: C_18  and  C_19
REMARK    7  A    between atoms: C_18  and  N_20
REMARK    8  A    between atoms: N_20  and  C_21
REMARK    9  A    between atoms: C_22  and  C_23
REMARK                            x       y       z     vdW  Elec       q    Type
REMARK                         _______ _______ _______ _____ _____    ______ ____
ROOT
ATOM      1  C   UNL     1      32.220 -31.282 -29.900  0.00  0.00    +0.008 C 
ATOM      2  C   UNL     1      31.143 -32.376 -29.917  0.00  0.00    -0.037 C 
ATOM      3  C   UNL     1      31.654 -33.709 -29.357  0.00  0.00    -0.046 C 
ATOM      4  C   UNL     1      32.937 -34.226 -30.062  0.00  0.00    -0.026 C 
ATOM      5  C   UNL     1      32.591 -34.585 -31.533  0.00  0.00    -0.059 C 
ATOM      6  C   UNL     1      34.004 -33.093 -29.987  0.00  0.00    -0.034 C 
ATOM      7  C   UNL     1      35.336 -33.524 -30.606  0.00  0.00    -0.049 C 
ATOM      8  C   UNL     1      35.888 -34.758 -29.898  0.00  0.00    -0.049 C 
ATOM      9  C   UNL     1      34.891 -35.933 -29.838  0.00  0.00    -0.034 C 
ATOM     10  C   UNL     1      33.511 -35.479 -29.297  0.00  0.00    -0.032 C 
ATOM     11  C   UNL     1      32.514 -36.653 -29.206  0.00  0.00    -0.049 C 
ATOM     12  C   UNL     1      33.157 -38.035 -29.329  0.00  0.00    -0.047 C 
ATOM     13  C   UNL     1      34.468 -38.179 -28.530  0.00  0.00    -0.024 C 
ATOM     14  C   UNL     1      34.172 -38.057 -27.020  0.00  0.00    -0.059 C 
ATOM     15  C   UNL     1      35.221 -39.530 -28.798  0.00  0.00    -0.017 C 
ATOM     16  C   UNL     1      36.037 -39.211 -30.050  0.00  0.00    -0.048 C 
ATOM     17  C   UNL     1      36.602 -37.833 -29.743  0.00  0.00    -0.049 C 
ATOM     18  C   UNL     1      35.491 -37.084 -28.978  0.00  0.00    -0.032 C 
ATOM     19  C   UNL     1      33.514 -31.764 -30.582  0.00  0.00    -0.034 C 
ENDROOT
BRANCH   1  21
ATOM     20  C   UNL     1      30.327 -29.976 -30.725  0.00  0.00    -0.016 C 
ATOM     21  N   UNL     1      31.774 -30.052 -30.574  0.00  0.00    -0.316 N 
ATOM     22  H   UNL     1      32.086 -29.251 -30.026  0.00  0.00    +0.000 HD
ATOM     23  H   UNL     1      32.177 -30.056 -31.511  0.00  0.00    +0.000 HD
ENDBRANCH   1  21
BRANCH  15  24
ATOM     24  C   UNL     1      34.348 -40.817 -28.834  0.00  0.00    +0.026 C 
ATOM     25  C   UNL     1      34.519 -41.712 -30.067  0.00  0.00    -0.046 C 
BRANCH  24  26
ATOM     26  N   UNL     1      34.457 -41.598 -27.575  0.00  0.00    -0.302 N 
ATOM     27  C   UNL     1      35.670 -42.396 -27.429  0.00  0.00    +0.003 C 
ATOM     28  C   UNL     1      33.413 -41.609 -26.655  0.00  0.00    +0.212 C 
ATOM     29  C   UNL     1      33.591 -42.441 -25.410  0.00  0.00    +0.012 C 
ATOM     30  O   UNL     1      32.370 -40.975 -26.808  0.00  0.00    -0.276 OA
ENDBRANCH  24  26
ENDBRANCH  15  24
TORSDOF 3
ENDMDL
MODEL 9
REMARK VINA RESULT:    -6.681      2.334      4.039
REMARK INTER + INTRA:          -8.339
REMARK INTER:                  -7.670
REMARK INTRA:                  -0.669
REMARK UNBOUND:                -0.487
REMARK  Name = cpd192.pdb
REMARK  9 active torsions:
REMARK  status: ('A' for Active; 'I' for Inactive)
REMARK    1  A    between atoms: C_1  and  N_2
REMARK    2  A    between atoms: N_2  and  C_3
REMARK    3  A    between atoms: C_6  and  C_7
REMARK    4  A    between atoms: C_15  and  C_16
REMARK    5  A    between atoms: C_17  and  C_18
REMARK    6  A    between atoms: C_18  and  C_19
REMARK    7  A    between atoms: C_18  and  N_20
REMARK    8  A    between atoms: N_20  and  C_21
REMARK    9  A    between atoms: C_22  and  C_23
REMARK                            x       y       z     vdW  Elec       q    Type
REMARK                         _______ _______ _______ _____ _____    ______ ____
ROOT
ATOM      1  C   UNL     1      35.792 -39.694 -29.454  0.00  0.00    +0.008 C 
ATOM      2  C   UNL     1      34.543 -39.472 -28.590  0.00  0.00    -0.037 C 
ATOM      3  C   UNL     1      33.685 -38.303 -29.091  0.00  0.00    -0.046 C 
ATOM      4  C   UNL     1      34.472 -36.971 -29.226  0.00  0.00    -0.026 C 
ATOM      5  C   UNL     1      34.902 -36.497 -27.810  0.00  0.00    -0.059 C 
ATOM      6  C   UNL     1      35.706 -37.245 -30.136  0.00  0.00    -0.034 C 
ATOM      7  C   UNL     1      36.524 -35.974 -30.382  0.00  0.00    -0.049 C 
ATOM      8  C   UNL     1      35.666 -34.898 -31.041  0.00  0.00    -0.049 C 
ATOM      9  C   UNL     1      34.365 -34.588 -30.270  0.00  0.00    -0.034 C 
ATOM     10  C   UNL     1      33.582 -35.883 -29.938  0.00  0.00    -0.032 C 
ATOM     11  C   UNL     1      32.264 -35.582 -29.192  0.00  0.00    -0.049 C 
ATOM     12  C   UNL     1      31.839 -34.114 -29.234  0.00  0.00    -0.047 C 
ATOM     13  C   UNL     1      32.011 -33.460 -30.619  0.00  0.00    -0.024 C 
ATOM     14  C   UNL     1      31.063 -34.135 -31.632  0.00  0.00    -0.059 C 
ATOM     15  C   UNL     1      31.748 -31.913 -30.620  0.00  0.00    -0.017 C 
ATOM     16  C   UNL     1      33.105 -31.347 -30.201  0.00  0.00    -0.048 C 
ATOM     17  C   UNL     1      34.083 -32.162 -31.032  0.00  0.00    -0.049 C 
ATOM     18  C   UNL     1      33.498 -33.588 -31.090  0.00  0.00    -0.032 C 
ATOM     19  C   UNL     1      36.593 -38.389 -29.620  0.00  0.00    -0.034 C 
ENDROOT
BRANCH   1  21
ATOM     20  C   UNL     1      35.971 -41.799 -28.227  0.00  0.00    -0.016 C 
ATOM     21  N   UNL     1      36.686 -40.715 -28.886  0.00  0.00    -0.316 N 
ATOM     22  H   UNL     1      37.249 -41.109 -29.640  0.00  0.00    +0.000 HD
ATOM     23  H   UNL     1      37.261 -40.256 -28.180  0.00  0.00    +0.000 HD
ENDBRANCH   1  21
BRANCH  15  24
ATOM     24  C   UNL     1      30.503 -31.419 -29.830  0.00  0.00    +0.026 C 
ATOM     25  C   UNL     1      30.778 -30.435 -28.687  0.00  0.00    -0.046 C 
BRANCH  24  26
ATOM     26  N   UNL     1      29.434 -30.920 -30.733  0.00  0.00    -0.302 N 
ATOM     27  C   UNL     1      29.635 -29.579 -31.270  0.00  0.00    +0.003 C 
ATOM     28  C   UNL     1      28.289 -31.678 -30.962  0.00  0.00    +0.212 C 
ATOM     29  C   UNL     1      27.240 -31.095 -31.876  0.00  0.00    +0.012 C 
ATOM     30  O   UNL     1      28.101 -32.787 -30.465  0.00  0.00    -0.276 OA
ENDBRANCH  24  26
ENDBRANCH  15  24
TORSDOF 3
ENDMDL
MODEL 10
REMARK VINA RESULT:    -6.667     16.848     19.034
REMARK INTER + INTRA:          -8.323
REMARK INTER:                  -7.625
REMARK INTRA:                  -0.698
REMARK UNBOUND:                -0.487
REMARK  Name = cpd192.pdb
REMARK  9 active torsions:
REMARK  status: ('A' for Active; 'I' for Inactive)
REMARK    1  A    between atoms: C_1  and  N_2
REMARK    2  A    between atoms: N_2  and  C_3
REMARK    3  A    between atoms: C_6  and  C_7
REMARK    4  A    between atoms: C_15  and  C_16
REMARK    5  A    between atoms: C_17  and  C_18
REMARK    6  A    between atoms: C_18  and  C_19
REMARK    7  A    between atoms: C_18  and  N_20
REMARK    8  A    between atoms: N_20  and  C_21
REMARK    9  A    between atoms: C_22  and  C_23
REMARK                            x       y       z     vdW  Elec       q    Type
REMARK                         _______ _______ _______ _____ _____    ______ ____
ROOT
ATOM      1  C   UNL     1      41.135 -47.073 -20.671  0.00  0.00    +0.008 C 
ATOM      2  C   UNL     1      40.013 -47.274 -19.643  0.00  0.00    -0.037 C 
ATOM      3  C   UNL     1      40.078 -46.254 -18.499  0.00  0.00    -0.046 C 
ATOM      4  C   UNL     1      41.452 -46.222 -17.776  0.00  0.00    -0.026 C 
ATOM      5  C   UNL     1      41.664 -47.573 -17.040  0.00  0.00    -0.059 C 
ATOM      6  C   UNL     1      42.546 -45.982 -18.858  0.00  0.00    -0.034 C 
ATOM      7  C   UNL     1      43.943 -45.874 -18.239  0.00  0.00    -0.049 C 
ATOM      8  C   UNL     1      44.001 -44.732 -17.230  0.00  0.00    -0.049 C 
ATOM      9  C   UNL     1      42.910 -44.812 -16.142  0.00  0.00    -0.034 C 
ATOM     10  C   UNL     1      41.505 -45.015 -16.763  0.00  0.00    -0.032 C 
ATOM     11  C   UNL     1      40.402 -45.069 -15.684  0.00  0.00    -0.049 C 
ATOM     12  C   UNL     1      40.848 -44.584 -14.305  0.00  0.00    -0.047 C 
ATOM     13  C   UNL     1      41.708 -43.306 -14.348  0.00  0.00    -0.024 C 
ATOM     14  C   UNL     1      40.865 -42.130 -14.883  0.00  0.00    -0.059 C 
ATOM     15  C   UNL     1      42.316 -42.910 -12.955  0.00  0.00    -0.017 C 
ATOM     16  C   UNL     1      43.592 -43.750 -12.901  0.00  0.00    -0.048 C 
ATOM     17  C   UNL     1      44.173 -43.572 -14.295  0.00  0.00    -0.049 C 
ATOM     18  C   UNL     1      42.964 -43.536 -15.253  0.00  0.00    -0.032 C 
ATOM     19  C   UNL     1      42.514 -47.023 -19.988  0.00  0.00    -0.034 C 
ENDROOT
BRANCH   1  21
ATOM     20  C   UNL     1      39.987 -49.003 -21.633  0.00  0.00    -0.016 C 
ATOM     21  N   UNL     1      41.160 -48.141 -21.683  0.00  0.00    -0.316 N 
ATOM     22  H   UNL     1      41.207 -47.711 -22.607  0.00  0.00    +0.000 HD
ATOM     23  H   UNL     1      41.974 -48.724 -21.490  0.00  0.00    +0.000 HD
ENDBRANCH   1  21
BRANCH  15  24
ATOM     24  C   UNL     1      41.361 -42.998 -11.731  0.00  0.00    +0.026 C 
ATOM     25  C   UNL     1      41.883 -43.788 -10.525  0.00  0.00    -0.046 C 
BRANCH  24  26
ATOM     26  N   UNL     1      40.851 -41.662 -11.327  0.00  0.00    -0.302 N 
ATOM     27  C   UNL     1      41.817 -40.790 -10.667  0.00  0.00    +0.003 C 
ATOM     28  C   UNL     1      39.511 -41.331 -11.507  0.00  0.00    +0.212 C 
ATOM     29  C   UNL     1      39.066 -39.964 -11.054  0.00  0.00    +0.012 C 
ATOM     30  O   UNL     1      38.689 -42.091 -12.016  0.00  0.00    -0.276 OA
ENDBRANCH  24  26
ENDBRANCH  15  24
TORSDOF 3
ENDMDL
MODEL 11
REMARK VINA RESULT:    -6.411     19.289     20.911
REMARK INTER + INTRA:          -8.022
REMARK INTER:                  -7.328
REMARK INTRA:                  -0.694
REMARK UNBOUND:                -0.487
REMARK  Name = cpd192.pdb
REMARK  9 active torsions:
REMARK  status: ('A' for Active; 'I' for Inactive)
REMARK    1  A    between atoms: C_1  and  N_2
REMARK    2  A    between atoms: N_2  and  C_3
REMARK    3  A    between atoms: C_6  and  C_7
REMARK    4  A    between atoms: C_15  and  C_16
REMARK    5  A    between atoms: C_17  and  C_18
REMARK    6  A    between atoms: C_18  and  C_19
REMARK    7  A    between atoms: C_18  and  N_20
REMARK    8  A    between atoms: N_20  and  C_21
REMARK    9  A    between atoms: C_22  and  C_23
REMARK                            x       y       z     vdW  Elec       q    Type
REMARK                         _______ _______ _______ _____ _____    ______ ____
ROOT
ATOM      1  C   UNL     1      46.742 -21.535 -41.759  0.00  0.00    +0.008 C 
ATOM      2  C   UNL     1      46.670 -22.245 -40.400  0.00  0.00    -0.037 C 
ATOM      3  C   UNL     1      45.726 -21.538 -39.420  0.00  0.00    -0.046 C 
ATOM      4  C   UNL     1      46.063 -20.037 -39.208  0.00  0.00    -0.026 C 
ATOM      5  C   UNL     1      47.439 -19.927 -38.496  0.00  0.00    -0.059 C 
ATOM      6  C   UNL     1      46.090 -19.360 -40.611  0.00  0.00    -0.034 C 
ATOM      7  C   UNL     1      46.358 -17.856 -40.512  0.00  0.00    -0.049 C 
ATOM      8  C   UNL     1      45.291 -17.171 -39.664  0.00  0.00    -0.049 C 
ATOM      9  C   UNL     1      45.111 -17.803 -38.268  0.00  0.00    -0.034 C 
ATOM     10  C   UNL     1      44.932 -19.339 -38.360  0.00  0.00    -0.032 C 
ATOM     11  C   UNL     1      44.724 -19.978 -36.970  0.00  0.00    -0.049 C 
ATOM     12  C   UNL     1      44.400 -18.978 -35.861  0.00  0.00    -0.047 C 
ATOM     13  C   UNL     1      43.385 -17.897 -36.281  0.00  0.00    -0.024 C 
ATOM     14  C   UNL     1      42.021 -18.553 -36.579  0.00  0.00    -0.059 C 
ATOM     15  C   UNL     1      43.189 -16.768 -35.208  0.00  0.00    -0.017 C 
ATOM     16  C   UNL     1      44.330 -15.803 -35.531  0.00  0.00    -0.048 C 
ATOM     17  C   UNL     1      44.278 -15.714 -37.049  0.00  0.00    -0.049 C 
ATOM     18  C   UNL     1      43.911 -17.130 -37.540  0.00  0.00    -0.032 C 
ATOM     19  C   UNL     1      47.063 -20.038 -41.589  0.00  0.00    -0.034 C 
ENDROOT
BRANCH   1  21
ATOM     20  C   UNL     1      47.942 -23.556 -42.425  0.00  0.00    -0.016 C 
ATOM     21  N   UNL     1      47.758 -22.127 -42.643  0.00  0.00    -0.316 N 
ATOM     22  H   UNL     1      47.472 -21.981 -43.611  0.00  0.00    +0.000 HD
ATOM     23  H   UNL     1      48.646 -21.671 -42.434  0.00  0.00    +0.000 HD
ENDBRANCH   1  21
BRANCH  15  24
ATOM     24  C   UNL     1      43.055 -17.231 -33.729  0.00  0.00    +0.026 C 
ATOM     25  C   UNL     1      44.037 -16.601 -32.735  0.00  0.00    -0.046 C 
BRANCH  24  26
ATOM     26  N   UNL     1      41.654 -17.141 -33.244  0.00  0.00    -0.302 N 
ATOM     27  C   UNL     1      41.147 -15.790 -33.027  0.00  0.00    +0.003 C 
ATOM     28  C   UNL     1      40.931 -18.292 -32.947  0.00  0.00    +0.212 C 
ATOM     29  C   UNL     1      39.521 -18.117 -32.440  0.00  0.00    +0.012 C 
ATOM     30  O   UNL     1      41.383 -19.428 -33.082  0.00  0.00    -0.276 OA
ENDBRANCH  24  26
ENDBRANCH  15  24
TORSDOF 3
ENDMDL
MODEL 12
REMARK VINA RESULT:    -6.384     22.163     23.558
REMARK INTER + INTRA:          -7.990
REMARK INTER:                  -7.355
REMARK INTRA:                  -0.635
REMARK UNBOUND:                -0.487
REMARK  Name = cpd192.pdb
REMARK  9 active torsions:
REMARK  status: ('A' for Active; 'I' for Inactive)
REMARK    1  A    between atoms: C_1  and  N_2
REMARK    2  A    between atoms: N_2  and  C_3
REMARK    3  A    between atoms: C_6  and  C_7
REMARK    4  A    between atoms: C_15  and  C_16
REMARK    5  A    between atoms: C_17  and  C_18
REMARK    6  A    between atoms: C_18  and  C_19
REMARK    7  A    between atoms: C_18  and  N_20
REMARK    8  A    between atoms: N_20  and  C_21
REMARK    9  A    between atoms: C_22  and  C_23
REMARK                            x       y       z     vdW  Elec       q    Type
REMARK                         _______ _______ _______ _____ _____    ______ ____
ROOT
ATOM      1  C   UNL     1      47.204 -22.354 -41.558  0.00  0.00    +0.008 C 
ATOM      2  C   UNL     1      46.032 -21.737 -42.336  0.00  0.00    -0.037 C 
ATOM      3  C   UNL     1      45.912 -20.225 -42.111  0.00  0.00    -0.046 C 
ATOM      4  C   UNL     1      45.813 -19.828 -40.613  0.00  0.00    -0.026 C 
ATOM      5  C   UNL     1      44.474 -20.365 -40.038  0.00  0.00    -0.059 C 
ATOM      6  C   UNL     1      47.040 -20.450 -39.880  0.00  0.00    -0.034 C 
ATOM      7  C   UNL     1      47.070 -20.067 -38.398  0.00  0.00    -0.049 C 
ATOM      8  C   UNL     1      47.124 -18.552 -38.231  0.00  0.00    -0.049 C 
ATOM      9  C   UNL     1      45.998 -17.808 -38.979  0.00  0.00    -0.034 C 
ATOM     10  C   UNL     1      45.905 -18.262 -40.458  0.00  0.00    -0.032 C 
ATOM     11  C   UNL     1      44.799 -17.503 -41.223  0.00  0.00    -0.049 C 
ATOM     12  C   UNL     1      44.272 -16.263 -40.501  0.00  0.00    -0.047 C 
ATOM     13  C   UNL     1      45.380 -15.405 -39.860  0.00  0.00    -0.024 C 
ATOM     14  C   UNL     1      46.285 -14.817 -40.963  0.00  0.00    -0.059 C 
ATOM     15  C   UNL     1      44.831 -14.235 -38.968  0.00  0.00    -0.017 C 
ATOM     16  C   UNL     1      44.606 -14.923 -37.622  0.00  0.00    -0.048 C 
ATOM     17  C   UNL     1      45.866 -15.758 -37.454  0.00  0.00    -0.049 C 
ATOM     18  C   UNL     1      46.221 -16.272 -38.865  0.00  0.00    -0.032 C 
ATOM     19  C   UNL     1      47.146 -21.971 -40.068  0.00  0.00    -0.034 C 
ENDROOT
BRANCH   1  21
ATOM     20  C   UNL     1      48.160 -24.314 -42.659  0.00  0.00    -0.016 C 
ATOM     21  N   UNL     1      47.225 -23.822 -41.657  0.00  0.00    -0.316 N 
ATOM     22  H   UNL     1      47.490 -24.204 -40.750  0.00  0.00    +0.000 HD
ATOM     23  H   UNL     1      46.291 -24.121 -41.940  0.00  0.00    +0.000 HD
ENDBRANCH   1  21
BRANCH  15  24
ATOM     24  C   UNL     1      43.643 -13.417 -39.550  0.00  0.00    +0.026 C 
ATOM     25  C   UNL     1      42.328 -13.489 -38.765  0.00  0.00    -0.046 C 
BRANCH  24  26
ATOM     26  N   UNL     1      44.026 -12.011 -39.842  0.00  0.00    -0.302 N 
ATOM     27  C   UNL     1      44.033 -11.108 -38.696  0.00  0.00    +0.003 C 
ATOM     28  C   UNL     1      44.275 -11.601 -41.148  0.00  0.00    +0.212 C 
ATOM     29  C   UNL     1      44.640 -10.155 -41.366  0.00  0.00    +0.012 C 
ATOM     30  O   UNL     1      44.216 -12.357 -42.117  0.00  0.00    -0.276 OA
ENDBRANCH  24  26
ENDBRANCH  15  24
TORSDOF 3
ENDMDL
MODEL 13
REMARK VINA RESULT:    -6.291      2.994      9.005
REMARK INTER + INTRA:          -7.881
REMARK INTER:                  -7.474
REMARK INTRA:                  -0.407
REMARK UNBOUND:                -0.487
REMARK  Name = cpd192.pdb
REMARK  9 active torsions:
REMARK  status: ('A' for Active; 'I' for Inactive)
REMARK    1  A    between atoms: C_1  and  N_2
REMARK    2  A    between atoms: N_2  and  C_3
REMARK    3  A    between atoms: C_6  and  C_7
REMARK    4  A    between atoms: C_15  and  C_16
REMARK    5  A    between atoms: C_17  and  C_18
REMARK    6  A    between atoms: C_18  and  C_19
REMARK    7  A    between atoms: C_18  and  N_20
REMARK    8  A    between atoms: N_20  and  C_21
REMARK    9  A    between atoms: C_22  and  C_23
REMARK                            x       y       z     vdW  Elec       q    Type
REMARK                         _______ _______ _______ _____ _____    ______ ____
ROOT
ATOM      1  C   UNL     1      28.797 -30.547 -28.603  0.00  0.00    +0.008 C 
ATOM      2  C   UNL     1      28.305 -31.990 -28.785  0.00  0.00    -0.037 C 
ATOM      3  C   UNL     1      29.436 -33.016 -28.647  0.00  0.00    -0.046 C 
ATOM      4  C   UNL     1      30.634 -32.748 -29.598  0.00  0.00    -0.026 C 
ATOM      5  C   UNL     1      30.167 -32.952 -31.065  0.00  0.00    -0.059 C 
ATOM      6  C   UNL     1      31.113 -31.287 -29.348  0.00  0.00    -0.034 C 
ATOM      7  C   UNL     1      32.337 -30.937 -30.199  0.00  0.00    -0.049 C 
ATOM      8  C   UNL     1      33.495 -31.884 -29.899  0.00  0.00    -0.049 C 
ATOM      9  C   UNL     1      33.123 -33.376 -30.036  0.00  0.00    -0.034 C 
ATOM     10  C   UNL     1      31.831 -33.712 -29.249  0.00  0.00    -0.032 C 
ATOM     11  C   UNL     1      31.467 -35.209 -29.356  0.00  0.00    -0.049 C 
ATOM     12  C   UNL     1      32.589 -36.092 -29.901  0.00  0.00    -0.047 C 
ATOM     13  C   UNL     1      33.976 -35.761 -29.315  0.00  0.00    -0.024 C 
ATOM     14  C   UNL     1      33.985 -36.065 -27.802  0.00  0.00    -0.059 C 
ATOM     15  C   UNL     1      35.151 -36.540 -30.003  0.00  0.00    -0.017 C 
ATOM     16  C   UNL     1      35.469 -35.660 -31.212  0.00  0.00    -0.048 C 
ATOM     17  C   UNL     1      35.452 -34.258 -30.622  0.00  0.00    -0.049 C 
ATOM     18  C   UNL     1      34.321 -34.257 -29.573  0.00  0.00    -0.032 C 
ATOM     19  C   UNL     1      29.995 -30.248 -29.523  0.00  0.00    -0.034 C 
ENDROOT
BRANCH   1  21
ATOM     20  C   UNL     1      27.313 -28.830 -27.699  0.00  0.00    -0.016 C 
ATOM     21  N   UNL     1      27.742 -29.561 -28.883  0.00  0.00    -0.316 N 
ATOM     22  H   UNL     1      28.097 -28.892 -29.567  0.00  0.00    +0.000 HD
ATOM     23  H   UNL     1      26.933 -30.073 -29.234  0.00  0.00    +0.000 HD
ENDBRANCH   1  21
BRANCH  15  24
ATOM     24  C   UNL     1      34.916 -38.054 -30.276  0.00  0.00    +0.026 C 
ATOM     25  C   UNL     1      34.638 -38.440 -31.733  0.00  0.00    -0.046 C 
BRANCH  24  26
ATOM     26  N   UNL     1      35.986 -38.897 -29.682  0.00  0.00    -0.302 N 
ATOM     27  C   UNL     1      37.315 -38.297 -29.644  0.00  0.00    +0.003 C 
ATOM     28  C   UNL     1      35.717 -40.202 -29.278  0.00  0.00    +0.212 C 
ATOM     29  C   UNL     1      36.859 -41.001 -28.703  0.00  0.00    +0.012 C 
ATOM     30  O   UNL     1      34.604 -40.720 -29.361  0.00  0.00    -0.276 OA
ENDBRANCH  24  26
ENDBRANCH  15  24
TORSDOF 3
ENDMDL
MODEL 14
REMARK VINA RESULT:    -6.249     16.940     19.757
REMARK INTER + INTRA:          -7.831
REMARK INTER:                  -7.190
REMARK INTRA:                  -0.641
REMARK UNBOUND:                -0.487
REMARK  Name = cpd192.pdb
REMARK  9 active torsions:
REMARK  status: ('A' for Active; 'I' for Inactive)
REMARK    1  A    between atoms: C_1  and  N_2
REMARK    2  A    between atoms: N_2  and  C_3
REMARK    3  A    between atoms: C_6  and  C_7
REMARK    4  A    between atoms: C_15  and  C_16
REMARK    5  A    between atoms: C_17  and  C_18
REMARK    6  A    between atoms: C_18  and  C_19
REMARK    7  A    between atoms: C_18  and  N_20
REMARK    8  A    between atoms: N_20  and  C_21
REMARK    9  A    between atoms: C_22  and  C_23
REMARK                            x       y       z     vdW  Elec       q    Type
REMARK                         _______ _______ _______ _____ _____    ______ ____
ROOT
ATOM      1  C   UNL     1      36.720 -19.627 -33.887  0.00  0.00    +0.008 C 
ATOM      2  C   UNL     1      36.638 -19.027 -35.299  0.00  0.00    -0.037 C 
ATOM      3  C   UNL     1      37.785 -19.497 -36.201  0.00  0.00    -0.046 C 
ATOM      4  C   UNL     1      39.192 -19.233 -35.602  0.00  0.00    -0.026 C 
ATOM      5  C   UNL     1      39.426 -17.699 -35.525  0.00  0.00    -0.059 C 
ATOM      6  C   UNL     1      39.232 -19.889 -34.190  0.00  0.00    -0.034 C 
ATOM      7  C   UNL     1      40.605 -19.736 -33.530  0.00  0.00    -0.049 C 
ATOM      8  C   UNL     1      41.692 -20.373 -34.390  0.00  0.00    -0.049 C 
ATOM      9  C   UNL     1      41.708 -19.860 -35.845  0.00  0.00    -0.034 C 
ATOM     10  C   UNL     1      40.299 -19.927 -36.485  0.00  0.00    -0.032 C 
ATOM     11  C   UNL     1      40.309 -19.442 -37.950  0.00  0.00    -0.049 C 
ATOM     12  C   UNL     1      41.704 -19.327 -38.565  0.00  0.00    -0.047 C 
ATOM     13  C   UNL     1      42.628 -20.512 -38.224  0.00  0.00    -0.024 C 
ATOM     14  C   UNL     1      42.068 -21.805 -38.854  0.00  0.00    -0.059 C 
ATOM     15  C   UNL     1      44.111 -20.310 -38.701  0.00  0.00    -0.017 C 
ATOM     16  C   UNL     1      44.724 -19.519 -37.545  0.00  0.00    -0.048 C 
ATOM     17  C   UNL     1      44.192 -20.245 -36.319  0.00  0.00    -0.049 C 
ATOM     18  C   UNL     1      42.751 -20.667 -36.672  0.00  0.00    -0.032 C 
ATOM     19  C   UNL     1      38.109 -19.394 -33.264  0.00  0.00    -0.034 C 
ENDROOT
BRANCH   1  21
ATOM     20  C   UNL     1      35.785 -17.609 -32.876  0.00  0.00    -0.016 C 
ATOM     21  N   UNL     1      35.707 -19.059 -32.983  0.00  0.00    -0.316 N 
ATOM     22  H   UNL     1      34.783 -19.310 -33.333  0.00  0.00    +0.000 HD
ATOM     23  H   UNL     1      35.881 -19.442 -32.054  0.00  0.00    +0.000 HD
ENDBRANCH   1  21
BRANCH  15  24
ATOM     24  C   UNL     1      44.308 -19.734 -40.132  0.00  0.00    +0.026 C 
ATOM     25  C   UNL     1      44.820 -18.292 -40.213  0.00  0.00    -0.046 C 
BRANCH  24  26
ATOM     26  N   UNL     1      45.107 -20.645 -40.992  0.00  0.00    -0.302 N 
ATOM     27  C   UNL     1      46.555 -20.556 -40.832  0.00  0.00    +0.003 C 
ATOM     28  C   UNL     1      44.485 -21.457 -41.936  0.00  0.00    +0.212 C 
ATOM     29  C   UNL     1      45.366 -22.340 -42.783  0.00  0.00    +0.012 C 
ATOM     30  O   UNL     1      43.266 -21.489 -42.102  0.00  0.00    -0.276 OA
ENDBRANCH  24  26
ENDBRANCH  15  24
TORSDOF 3
ENDMDL
MODEL 15
REMARK VINA RESULT:    -6.214      2.740      9.470
REMARK INTER + INTRA:          -7.790
REMARK INTER:                  -7.289
REMARK INTRA:                  -0.501
REMARK UNBOUND:                -0.487
REMARK  Name = cpd192.pdb
REMARK  9 active torsions:
REMARK  status: ('A' for Active; 'I' for Inactive)
REMARK    1  A    between atoms: C_1  and  N_2
REMARK    2  A    between atoms: N_2  and  C_3
REMARK    3  A    between atoms: C_6  and  C_7
REMARK    4  A    between atoms: C_15  and  C_16
REMARK    5  A    between atoms: C_17  and  C_18
REMARK    6  A    between atoms: C_18  and  C_19
REMARK    7  A    between atoms: C_18  and  N_20
REMARK    8  A    between atoms: N_20  and  C_21
REMARK    9  A    between atoms: C_22  and  C_23
REMARK                            x       y       z     vdW  Elec       q    Type
REMARK                         _______ _______ _______ _____ _____    ______ ____
ROOT
ATOM      1  C   UNL     1      26.504 -31.040 -30.223  0.00  0.00    +0.008 C 
ATOM      2  C   UNL     1      26.616 -32.482 -30.739  0.00  0.00    -0.037 C 
ATOM      3  C   UNL     1      27.908 -33.169 -30.281  0.00  0.00    -0.046 C 
ATOM      4  C   UNL     1      29.194 -32.380 -30.650  0.00  0.00    -0.026 C 
ATOM      5  C   UNL     1      29.346 -32.363 -32.196  0.00  0.00    -0.059 C 
ATOM      6  C   UNL     1      29.042 -30.940 -30.075  0.00  0.00    -0.034 C 
ATOM      7  C   UNL     1      30.288 -30.089 -30.335  0.00  0.00    -0.049 C 
ATOM      8  C   UNL     1      31.522 -30.732 -29.710  0.00  0.00    -0.049 C 
ATOM      9  C   UNL     1      31.741 -32.197 -30.143  0.00  0.00    -0.034 C 
ATOM     10  C   UNL     1      30.452 -33.039 -29.968  0.00  0.00    -0.032 C 
ATOM     11  C   UNL     1      30.669 -34.513 -30.372  0.00  0.00    -0.049 C 
ATOM     12  C   UNL     1      32.136 -34.914 -30.526  0.00  0.00    -0.047 C 
ATOM     13  C   UNL     1      33.046 -34.364 -29.410  0.00  0.00    -0.024 C 
ATOM     14  C   UNL     1      32.646 -34.990 -28.058  0.00  0.00    -0.059 C 
ATOM     15  C   UNL     1      34.574 -34.621 -29.663  0.00  0.00    -0.017 C 
ATOM     16  C   UNL     1      34.967 -33.436 -30.546  0.00  0.00    -0.048 C 
ATOM     17  C   UNL     1      34.283 -32.263 -29.862  0.00  0.00    -0.049 C 
ATOM     18  C   UNL     1      32.934 -32.805 -29.347  0.00  0.00    -0.032 C 
ATOM     19  C   UNL     1      27.769 -30.228 -30.561  0.00  0.00    -0.034 C 
ENDROOT
BRANCH   1  21
ATOM     20  C   UNL     1      25.683 -29.056 -31.387  0.00  0.00    -0.016 C 
ATOM     21  N   UNL     1      25.341 -30.337 -30.785  0.00  0.00    -0.316 N 
ATOM     22  H   UNL     1      24.919 -30.929 -31.501  0.00  0.00    +0.000 HD
ATOM     23  H   UNL     1      24.698 -30.150 -30.016  0.00  0.00    +0.000 HD
ENDBRANCH   1  21
BRANCH  15  24
ATOM     24  C   UNL     1      34.966 -36.038 -30.169  0.00  0.00    +0.026 C 
ATOM     25  C   UNL     1      35.065 -36.207 -31.689  0.00  0.00    -0.046 C 
BRANCH  24  26
ATOM     26  N   UNL     1      36.178 -36.557 -29.483  0.00  0.00    -0.302 N 
ATOM     27  C   UNL     1      37.451 -36.230 -30.117  0.00  0.00    +0.003 C 
ATOM     28  C   UNL     1      36.063 -37.369 -28.359  0.00  0.00    +0.212 C 
ATOM     29  C   UNL     1      37.338 -37.872 -27.731  0.00  0.00    +0.012 C 
ATOM     30  O   UNL     1      34.984 -37.684 -27.859  0.00  0.00    -0.276 OA
ENDBRANCH  24  26
ENDBRANCH  15  24
TORSDOF 3
ENDMDL
MODEL 16
REMARK VINA RESULT:    -6.166     19.903     22.075
REMARK INTER + INTRA:          -7.734
REMARK INTER:                  -7.110
REMARK INTRA:                  -0.624
REMARK UNBOUND:                -0.487
REMARK  Name = cpd192.pdb
REMARK  9 active torsions:
REMARK  status: ('A' for Active; 'I' for Inactive)
REMARK    1  A    between atoms: C_1  and  N_2
REMARK    2  A    between atoms: N_2  and  C_3
REMARK    3  A    between atoms: C_6  and  C_7
REMARK    4  A    between atoms: C_15  and  C_16
REMARK    5  A    between atoms: C_17  and  C_18
REMARK    6  A    between atoms: C_18  and  C_19
REMARK    7  A    between atoms: C_18  and  N_20
REMARK    8  A    between atoms: N_20  and  C_21
REMARK    9  A    between atoms: C_22  and  C_23
REMARK                            x       y       z     vdW  Elec       q    Type
REMARK                         _______ _______ _______ _____ _____    ______ ____
ROOT
ATOM      1  C   UNL     1      44.852 -14.833 -31.857  0.00  0.00    +0.008 C 
ATOM      2  C   UNL     1      44.812 -16.359 -31.700  0.00  0.00    -0.037 C 
ATOM      3  C   UNL     1      45.126 -17.091 -33.010  0.00  0.00    -0.046 C 
ATOM      4  C   UNL     1      44.215 -16.663 -34.192  0.00  0.00    -0.026 C 
ATOM      5  C   UNL     1      42.759 -17.111 -33.893  0.00  0.00    -0.059 C 
ATOM      6  C   UNL     1      44.320 -15.114 -34.328  0.00  0.00    -0.034 C 
ATOM      7  C   UNL     1      43.500 -14.591 -35.510  0.00  0.00    -0.049 C 
ATOM      8  C   UNL     1      43.968 -15.224 -36.817  0.00  0.00    -0.049 C 
ATOM      9  C   UNL     1      43.984 -16.766 -36.784  0.00  0.00    -0.034 C 
ATOM     10  C   UNL     1      44.735 -17.299 -35.538  0.00  0.00    -0.032 C 
ATOM     11  C   UNL     1      44.781 -18.842 -35.510  0.00  0.00    -0.049 C 
ATOM     12  C   UNL     1      44.402 -19.506 -36.834  0.00  0.00    -0.047 C 
ATOM     13  C   UNL     1      45.018 -18.819 -38.068  0.00  0.00    -0.024 C 
ATOM     14  C   UNL     1      46.554 -18.960 -38.027  0.00  0.00    -0.059 C 
ATOM     15  C   UNL     1      44.487 -19.386 -39.433  0.00  0.00    -0.017 C 
ATOM     16  C   UNL     1      43.203 -18.583 -39.646  0.00  0.00    -0.048 C 
ATOM     17  C   UNL     1      43.626 -17.167 -39.285  0.00  0.00    -0.049 C 
ATOM     18  C   UNL     1      44.607 -17.310 -38.103  0.00  0.00    -0.032 C 
ATOM     19  C   UNL     1      43.968 -14.371 -33.030  0.00  0.00    -0.034 C 
ENDROOT
BRANCH   1  21
ATOM     20  C   UNL     1      44.534 -12.689 -30.729  0.00  0.00    -0.016 C 
ATOM     21  N   UNL     1      44.405 -14.137 -30.640  0.00  0.00    -0.316 N 
ATOM     22  H   UNL     1      43.424 -14.365 -30.478  0.00  0.00    +0.000 HD
ATOM     23  H   UNL     1      45.002 -14.449 -29.874  0.00  0.00    +0.000 HD
ENDBRANCH   1  21
BRANCH  15  24
ATOM     24  C   UNL     1      44.379 -20.933 -39.548  0.00  0.00    +0.026 C 
ATOM     25  C   UNL     1      42.959 -21.511 -39.534  0.00  0.00    -0.046 C 
BRANCH  24  26
ATOM     26  N   UNL     1      45.171 -21.462 -40.688  0.00  0.00    -0.302 N 
ATOM     27  C   UNL     1      44.539 -21.358 -41.999  0.00  0.00    +0.003 C 
ATOM     28  C   UNL     1      46.397 -22.085 -40.470  0.00  0.00    +0.212 C 
ATOM     29  C   UNL     1      47.132 -22.613 -41.676  0.00  0.00    +0.012 C 
ATOM     30  O   UNL     1      46.901 -22.216 -39.356  0.00  0.00    -0.276 OA
ENDBRANCH  24  26
ENDBRANCH  15  24
TORSDOF 3
ENDMDL
MODEL 17
REMARK VINA RESULT:    -6.156      2.061      3.765
REMARK INTER + INTRA:          -7.723
REMARK INTER:                  -7.523
REMARK INTRA:                  -0.200
REMARK UNBOUND:                -0.487
REMARK  Name = cpd192.pdb
REMARK  9 active torsions:
REMARK  status: ('A' for Active; 'I' for Inactive)
REMARK    1  A    between atoms: C_1  and  N_2
REMARK    2  A    between atoms: N_2  and  C_3
REMARK    3  A    between atoms: C_6  and  C_7
REMARK    4  A    between atoms: C_15  and  C_16
REMARK    5  A    between atoms: C_17  and  C_18
REMARK    6  A    between atoms: C_18  and  C_19
REMARK    7  A    between atoms: C_18  and  N_20
REMARK    8  A    between atoms: N_20  and  C_21
REMARK    9  A    between atoms: C_22  and  C_23
REMARK                            x       y       z     vdW  Elec       q    Type
REMARK                         _______ _______ _______ _____ _____    ______ ____
ROOT
ATOM      1  C   UNL     1      37.187 -36.023 -29.746  0.00  0.00    +0.008 C 
ATOM      2  C   UNL     1      36.822 -35.263 -31.029  0.00  0.00    -0.037 C 
ATOM      3  C   UNL     1      35.683 -34.260 -30.810  0.00  0.00    -0.046 C 
ATOM      4  C   UNL     1      34.405 -34.897 -30.199  0.00  0.00    -0.026 C 
ATOM      5  C   UNL     1      33.796 -35.887 -31.229  0.00  0.00    -0.059 C 
ATOM      6  C   UNL     1      34.826 -35.625 -28.887  0.00  0.00    -0.034 C 
ATOM      7  C   UNL     1      33.623 -36.242 -28.169  0.00  0.00    -0.049 C 
ATOM      8  C   UNL     1      32.593 -35.173 -27.820  0.00  0.00    -0.049 C 
ATOM      9  C   UNL     1      32.149 -34.325 -29.031  0.00  0.00    -0.034 C 
ATOM     10  C   UNL     1      33.368 -33.775 -29.814  0.00  0.00    -0.032 C 
ATOM     11  C   UNL     1      32.935 -32.902 -31.012  0.00  0.00    -0.049 C 
ATOM     12  C   UNL     1      31.465 -32.483 -30.985  0.00  0.00    -0.047 C 
ATOM     13  C   UNL     1      30.975 -32.036 -29.594  0.00  0.00    -0.024 C 
ATOM     14  C   UNL     1      31.719 -30.753 -29.169  0.00  0.00    -0.059 C 
ATOM     15  C   UNL     1      29.428 -31.780 -29.525  0.00  0.00    -0.017 C 
ATOM     16  C   UNL     1      28.873 -33.179 -29.255  0.00  0.00    -0.048 C 
ATOM     17  C   UNL     1      29.813 -33.715 -28.187  0.00  0.00    -0.049 C 
ATOM     18  C   UNL     1      31.213 -33.178 -28.551  0.00  0.00    -0.032 C 
ATOM     19  C   UNL     1      35.941 -36.660 -29.103  0.00  0.00    -0.034 C 
ENDROOT
BRANCH   1  21
ATOM     20  C   UNL     1      38.369 -37.961 -28.844  0.00  0.00    -0.016 C 
ATOM     21  N   UNL     1      38.174 -37.086 -29.992  0.00  0.00    -0.316 N 
ATOM     22  H   UNL     1      37.854 -37.650 -30.779  0.00  0.00    +0.000 HD
ATOM     23  H   UNL     1      39.067 -36.633 -30.184  0.00  0.00    +0.000 HD
ENDBRANCH   1  21
BRANCH  15  24
ATOM     24  C   UNL     1      28.801 -30.989 -30.709  0.00  0.00    +0.026 C 
ATOM     25  C   UNL     1      27.471 -31.527 -31.249  0.00  0.00    -0.046 C 
BRANCH  24  26
ATOM     26  N   UNL     1      28.725 -29.532 -30.425  0.00  0.00    -0.302 N 
ATOM     27  C   UNL     1      29.422 -28.667 -31.370  0.00  0.00    +0.003 C 
ATOM     28  C   UNL     1      28.092 -29.067 -29.276  0.00  0.00    +0.212 C 
ATOM     29  C   UNL     1      28.072 -27.576 -29.048  0.00  0.00    +0.012 C 
ATOM     30  O   UNL     1      27.550 -29.806 -28.455  0.00  0.00    -0.276 OA
ENDBRANCH  24  26
ENDBRANCH  15  24
TORSDOF 3
ENDMDL
MODEL 18
REMARK VINA RESULT:    -6.070     17.986     19.586
REMARK INTER + INTRA:          -7.621
REMARK INTER:                  -6.920
REMARK INTRA:                  -0.701
REMARK UNBOUND:                -0.487
REMARK  Name = cpd192.pdb
REMARK  9 active torsions:
REMARK  status: ('A' for Active; 'I' for Inactive)
REMARK    1  A    between atoms: C_1  and  N_2
REMARK    2  A    between atoms: N_2  and  C_3
REMARK    3  A    between atoms: C_6  and  C_7
REMARK    4  A    between atoms: C_15  and  C_16
REMARK    5  A    between atoms: C_17  and  C_18
REMARK    6  A    between atoms: C_18  and  C_19
REMARK    7  A    between atoms: C_18  and  N_20
REMARK    8  A    between atoms: N_20  and  C_21
REMARK    9  A    between atoms: C_22  and  C_23
REMARK                            x       y       z     vdW  Elec       q    Type
REMARK                         _______ _______ _______ _____ _____    ______ ____
ROOT
ATOM      1  C   UNL     1      46.529 -21.391 -41.780  0.00  0.00    +0.008 C 
ATOM      2  C   UNL     1      46.287 -22.342 -40.599  0.00  0.00    -0.037 C 
ATOM      3  C   UNL     1      45.078 -21.926 -39.752  0.00  0.00    -0.046 C 
ATOM      4  C   UNL     1      45.155 -20.463 -39.238  0.00  0.00    -0.026 C 
ATOM      5  C   UNL     1      46.333 -20.345 -38.232  0.00  0.00    -0.059 C 
ATOM      6  C   UNL     1      45.367 -19.542 -40.476  0.00  0.00    -0.034 C 
ATOM      7  C   UNL     1      45.398 -18.062 -40.085  0.00  0.00    -0.049 C 
ATOM      8  C   UNL     1      44.099 -17.656 -39.396  0.00  0.00    -0.049 C 
ATOM      9  C   UNL     1      43.735 -18.548 -38.191  0.00  0.00    -0.034 C 
ATOM     10  C   UNL     1      43.793 -20.052 -38.560  0.00  0.00    -0.032 C 
ATOM     11  C   UNL     1      43.403 -20.952 -37.369  0.00  0.00    -0.049 C 
ATOM     12  C   UNL     1      42.729 -20.210 -36.215  0.00  0.00    -0.047 C 
ATOM     13  C   UNL     1      41.678 -19.179 -36.672  0.00  0.00    -0.024 C 
ATOM     14  C   UNL     1      40.505 -19.906 -37.362  0.00  0.00    -0.059 C 
ATOM     15  C   UNL     1      41.118 -18.292 -35.505  0.00  0.00    -0.017 C 
ATOM     16  C   UNL     1      42.155 -17.173 -35.414  0.00  0.00    -0.048 C 
ATOM     17  C   UNL     1      42.394 -16.814 -36.872  0.00  0.00    -0.049 C 
ATOM     18  C   UNL     1      42.333 -18.146 -37.648  0.00  0.00    -0.032 C 
ATOM     19  C   UNL     1      46.599 -19.926 -41.310  0.00  0.00    -0.034 C 
ENDROOT
BRANCH   1  21
ATOM     20  C   UNL     1      48.643 -22.615 -41.768  0.00  0.00    -0.016 C 
ATOM     21  N   UNL     1      47.773 -21.705 -42.500  0.00  0.00    -0.316 N 
ATOM     22  H   UNL     1      47.531 -22.135 -43.393  0.00  0.00    +0.000 HD
ATOM     23  H   UNL     1      48.282 -20.830 -42.623  0.00  0.00    +0.000 HD
ENDBRANCH   1  21
BRANCH  15  24
ATOM     24  C   UNL     1      40.758 -19.030 -34.183  0.00  0.00    +0.026 C 
ATOM     25  C   UNL     1      41.379 -18.459 -32.903  0.00  0.00    -0.046 C 
BRANCH  24  26
ATOM     26  N   UNL     1      39.292 -19.225 -34.038  0.00  0.00    -0.302 N 
ATOM     27  C   UNL     1      38.519 -18.019 -33.757  0.00  0.00    +0.003 C 
ATOM     28  C   UNL     1      38.738 -20.500 -34.090  0.00  0.00    +0.212 C 
ATOM     29  C   UNL     1      37.245 -20.619 -33.915  0.00  0.00    +0.012 C 
ATOM     30  O   UNL     1      39.402 -21.519 -34.276  0.00  0.00    -0.276 OA
ENDBRANCH  24  26
ENDBRANCH  15  24
TORSDOF 3
ENDMDL
MODEL 19
REMARK VINA RESULT:    -6.056     17.826     20.315
REMARK INTER + INTRA:          -7.604
REMARK INTER:                  -7.003
REMARK INTRA:                  -0.601
REMARK UNBOUND:                -0.487
REMARK  Name = cpd192.pdb
REMARK  9 active torsions:
REMARK  status: ('A' for Active; 'I' for Inactive)
REMARK    1  A    between atoms: C_1  and  N_2
REMARK    2  A    between atoms: N_2  and  C_3
REMARK    3  A    between atoms: C_6  and  C_7
REMARK    4  A    between atoms: C_15  and  C_16
REMARK    5  A    between atoms: C_17  and  C_18
REMARK    6  A    between atoms: C_18  and  C_19
REMARK    7  A    between atoms: C_18  and  N_20
REMARK    8  A    between atoms: N_20  and  C_21
REMARK    9  A    between atoms: C_22  and  C_23
REMARK                            x       y       z     vdW  Elec       q    Type
REMARK                         _______ _______ _______ _____ _____    ______ ____
ROOT
ATOM      1  C   UNL     1      38.111 -19.332 -33.869  0.00  0.00    +0.008 C 
ATOM      2  C   UNL     1      39.506 -19.008 -33.314  0.00  0.00    -0.037 C 
ATOM      3  C   UNL     1      40.538 -18.775 -34.424  0.00  0.00    -0.046 C 
ATOM      4  C   UNL     1      40.637 -19.951 -35.433  0.00  0.00    -0.026 C 
ATOM      5  C   UNL     1      41.202 -21.197 -34.698  0.00  0.00    -0.059 C 
ATOM      6  C   UNL     1      39.206 -20.215 -35.989  0.00  0.00    -0.034 C 
ATOM      7  C   UNL     1      39.201 -21.325 -37.043  0.00  0.00    -0.049 C 
ATOM      8  C   UNL     1      40.115 -20.966 -38.211  0.00  0.00    -0.049 C 
ATOM      9  C   UNL     1      41.553 -20.606 -37.782  0.00  0.00    -0.034 C 
ATOM     10  C   UNL     1      41.557 -19.549 -36.649  0.00  0.00    -0.032 C 
ATOM     11  C   UNL     1      42.992 -19.160 -36.231  0.00  0.00    -0.049 C 
ATOM     12  C   UNL     1      44.075 -19.611 -37.210  0.00  0.00    -0.047 C 
ATOM     13  C   UNL     1      43.703 -19.387 -38.689  0.00  0.00    -0.024 C 
ATOM     14  C   UNL     1      43.577 -17.875 -38.970  0.00  0.00    -0.059 C 
ATOM     15  C   UNL     1      44.732 -20.012 -39.697  0.00  0.00    -0.017 C 
ATOM     16  C   UNL     1      44.247 -21.458 -39.810  0.00  0.00    -0.048 C 
ATOM     17  C   UNL     1      42.740 -21.300 -39.939  0.00  0.00    -0.049 C 
ATOM     18  C   UNL     1      42.361 -20.120 -39.020  0.00  0.00    -0.032 C 
ATOM     19  C   UNL     1      38.172 -20.489 -34.885  0.00  0.00    -0.034 C 
ENDROOT
BRANCH   1  21
ATOM     20  C   UNL     1      35.994 -18.833 -32.757  0.00  0.00    -0.016 C 
ATOM     21  N   UNL     1      37.163 -19.701 -32.807  0.00  0.00    -0.316 N 
ATOM     22  H   UNL     1      36.849 -20.658 -32.970  0.00  0.00    +0.000 HD
ATOM     23  H   UNL     1      37.651 -19.605 -31.917  0.00  0.00    +0.000 HD
ENDBRANCH   1  21
BRANCH  15  24
ATOM     24  C   UNL     1      46.238 -19.796 -39.376  0.00  0.00    +0.026 C 
ATOM     25  C   UNL     1      47.183 -20.932 -39.784  0.00  0.00    -0.046 C 
BRANCH  24  26
ATOM     26  N   UNL     1      46.727 -18.480 -39.863  0.00  0.00    -0.302 N 
ATOM     27  C   UNL     1      46.894 -18.364 -41.308  0.00  0.00    +0.003 C 
ATOM     28  C   UNL     1      47.071 -17.474 -38.964  0.00  0.00    +0.212 C 
ATOM     29  C   UNL     1      47.576 -16.174 -39.535  0.00  0.00    +0.012 C 
ATOM     30  O   UNL     1      46.976 -17.597 -37.744  0.00  0.00    -0.276 OA
ENDBRANCH  24  26
ENDBRANCH  15  24
TORSDOF 3
ENDMDL
MODEL 20
REMARK VINA RESULT:    -5.959     21.342     23.223
REMARK INTER + INTRA:          -7.490
REMARK INTER:                  -6.855
REMARK INTRA:                  -0.635
REMARK UNBOUND:                -0.487
REMARK  Name = cpd192.pdb
REMARK  9 active torsions:
REMARK  status: ('A' for Active; 'I' for Inactive)
REMARK    1  A    between atoms: C_1  and  N_2
REMARK    2  A    between atoms: N_2  and  C_3
REMARK    3  A    between atoms: C_6  and  C_7
REMARK    4  A    between atoms: C_15  and  C_16
REMARK    5  A    between atoms: C_17  and  C_18
REMARK    6  A    between atoms: C_18  and  C_19
REMARK    7  A    between atoms: C_18  and  N_20
REMARK    8  A    between atoms: N_20  and  C_21
REMARK    9  A    between atoms: C_22  and  C_23
REMARK                            x       y       z     vdW  Elec       q    Type
REMARK                         _______ _______ _______ _____ _____    ______ ____
ROOT
ATOM      1  C   UNL     1      39.928 -21.409 -38.602  0.00  0.00    +0.008 C 
ATOM      2  C   UNL     1      39.740 -20.025 -37.964  0.00  0.00    -0.037 C 
ATOM      3  C   UNL     1      40.535 -18.933 -38.689  0.00  0.00    -0.046 C 
ATOM      4  C   UNL     1      42.050 -19.250 -38.813  0.00  0.00    -0.026 C 
ATOM      5  C   UNL     1      42.682 -19.246 -37.394  0.00  0.00    -0.059 C 
ATOM      6  C   UNL     1      42.184 -20.645 -39.495  0.00  0.00    -0.034 C 
ATOM      7  C   UNL     1      43.648 -21.030 -39.719  0.00  0.00    -0.049 C 
ATOM      8  C   UNL     1      44.353 -19.995 -40.592  0.00  0.00    -0.049 C 
ATOM      9  C   UNL     1      44.226 -18.552 -40.062  0.00  0.00    -0.034 C 
ATOM     10  C   UNL     1      42.753 -18.191 -39.746  0.00  0.00    -0.032 C 
ATOM     11  C   UNL     1      42.612 -16.739 -39.241  0.00  0.00    -0.049 C 
ATOM     12  C   UNL     1      43.848 -15.870 -39.473  0.00  0.00    -0.047 C 
ATOM     13  C   UNL     1      44.482 -16.057 -40.866  0.00  0.00    -0.024 C 
ATOM     14  C   UNL     1      43.498 -15.575 -41.953  0.00  0.00    -0.059 C 
ATOM     15  C   UNL     1      45.849 -15.305 -41.040  0.00  0.00    -0.017 C 
ATOM     16  C   UNL     1      46.852 -16.306 -40.466  0.00  0.00    -0.048 C 
ATOM     17  C   UNL     1      46.391 -17.627 -41.062  0.00  0.00    -0.049 C 
ATOM     18  C   UNL     1      44.850 -17.561 -41.088  0.00  0.00    -0.032 C 
ATOM     19  C   UNL     1      41.422 -21.753 -38.752  0.00  0.00    -0.034 C 
ENDROOT
BRANCH   1  21
ATOM     20  C   UNL     1      39.656 -22.450 -36.408  0.00  0.00    -0.016 C 
ATOM     21  N   UNL     1      39.286 -22.475 -37.816  0.00  0.00    -0.316 N 
ATOM     22  H   UNL     1      38.274 -22.365 -37.888  0.00  0.00    +0.000 HD
ATOM     23  H   UNL     1      39.601 -23.366 -38.198  0.00  0.00    +0.000 HD
ENDBRANCH   1  21
BRANCH  15  24
ATOM     24  C   UNL     1      45.915 -13.849 -40.497  0.00  0.00    +0.026 C 
ATOM     25  C   UNL     1      46.735 -13.644 -39.218  0.00  0.00    -0.046 C 
BRANCH  24  26
ATOM     26  N   UNL     1      46.303 -12.879 -41.554  0.00  0.00    -0.302 N 
ATOM     27  C   UNL     1      47.727 -12.818 -41.864  0.00  0.00    +0.003 C 
ATOM     28  C   UNL     1      45.352 -12.041 -42.130  0.00  0.00    +0.212 C 
ATOM     29  C   UNL     1      45.827 -11.071 -43.182  0.00  0.00    +0.012 C 
ATOM     30  O   UNL     1      44.160 -12.062 -41.827  0.00  0.00    -0.276 OA
ENDBRANCH  24  26
ENDBRANCH  15  24
TORSDOF 3
ENDMDL
