REMARK  Name = cpd192.pdb
REMARK  9 active torsions:
REMARK  status: ('A' for Active; 'I' for Inactive)
REMARK    1  A    between atoms: C_1  and  N_2
REMARK    2  A    between atoms: N_2  and  C_3
REMARK    3  A    between atoms: C_6  and  C_7
REMARK    4  A    between atoms: C_15  and  C_16
REMARK    5  A    between atoms: C_17  and  C_18
REMARK    6  A    between atoms: C_18  and  C_19
REMARK    7  A    between atoms: C_18  and  N_20
REMARK    8  A    between atoms: N_20  and  C_21
REMARK    9  A    between atoms: C_22  and  C_23
REMARK                            x       y       z     vdW  Elec       q    Type
REMARK                         _______ _______ _______ _____ _____    ______ ____
ROOT
ATOM      1  C   UNL     1       2.342  -0.377   0.542  0.00  0.00    +0.008 C 
ATOM      2  C   UNL     1       2.489   1.121   0.239  0.00  0.00    -0.037 C 
ATOM      3  C   UNL     1       1.201   1.904   0.520  0.00  0.00    -0.046 C 
ATOM      4  C   UNL     1      -0.041   1.340  -0.222  0.00  0.00    -0.026 C 
ATOM      5  C   UNL     1       0.153   1.540  -1.750  0.00  0.00    -0.059 C 
ATOM      6  C   UNL     1      -0.162  -0.169   0.146  0.00  0.00    -0.034 C 
ATOM      7  C   UNL     1      -1.397  -0.812  -0.491  0.00  0.00    -0.049 C 
ATOM      8  C   UNL     1      -2.670  -0.101  -0.043  0.00  0.00    -0.049 C 
ATOM      9  C   UNL     1      -2.643   1.423  -0.284  0.00  0.00    -0.034 C 
ATOM     10  C   UNL     1      -1.349   2.063   0.279  0.00  0.00    -0.032 C 
ATOM     11  C   UNL     1      -1.325   3.592   0.068  0.00  0.00    -0.049 C 
ATOM     12  C   UNL     1      -2.675   4.194  -0.322  0.00  0.00    -0.047 C 
ATOM     13  C   UNL     1      -3.860   3.628   0.485  0.00  0.00    -0.024 C 
ATOM     14  C   UNL     1      -3.711   4.020   1.970  0.00  0.00    -0.059 C 
ATOM     15  C   UNL     1      -5.261   4.109  -0.035  0.00  0.00    -0.017 C 
ATOM     16  C   UNL     1      -5.561   3.107  -1.150  0.00  0.00    -0.048 C 
ATOM     17  C   UNL     1      -5.165   1.778  -0.526  0.00  0.00    -0.049 C 
ATOM     18  C   UNL     1      -3.917   2.072   0.332  0.00  0.00    -0.032 C 
ATOM     19  C   UNL     1       1.111  -0.970  -0.169  0.00  0.00    -0.034 C 
ENDROOT
BRANCH   1  21
ATOM     20  C   UNL     1       4.702  -0.864   0.944  0.00  0.00    -0.016 C 
ATOM     21  N   UNL     1       3.527  -1.146   0.131  0.00  0.00    -0.316 N 
ATOM     22  H   UNL     1       3.311  -2.140   0.207  0.00  0.00    +0.000 HD
ATOM     23  H   UNL     1       3.748  -0.875  -0.827  0.00  0.00    +0.000 HD
ENDBRANCH   1  21
BRANCH  15  24
ATOM     24  C   UNL     1      -5.390   5.618  -0.389  0.00  0.00    +0.026 C 
ATOM     25  C   UNL     1      -5.219   5.979  -1.869  0.00  0.00    -0.046 C 
BRANCH  24  26
ATOM     26  N   UNL     1      -6.625   6.218   0.179  0.00  0.00    -0.302 N 
ATOM     27  C   UNL     1      -6.430   7.096   1.328  0.00  0.00    +0.003 C 
ATOM     28  C   UNL     1      -7.876   5.876  -0.326  0.00  0.00    +0.212 C 
ATOM     29  C   UNL     1      -9.083   6.512   0.316  0.00  0.00    +0.012 C 
ATOM     30  O   UNL     1      -8.037   5.094  -1.262  0.00  0.00    -0.276 OA
ENDBRANCH  24  26
ENDBRANCH  15  24
TORSDOF 3
