@<TRIPOS>MOLECULE
*****
 28 31 0 0 0
SMALL
GASTEIGER

@<TRIPOS>ATOM
      1 C           2.3404    0.7256    0.0000 C.3     1  UNL1        0.1074
      2 N           1.6884    0.0008    0.0000 N.3     1  UNL1       -0.2179
      3 C           0.8440    0.4879    0.0000 C.3     1  UNL1        0.0728
      4 C           0.8437    1.4632    0.0000 C.3     1  UNL1        0.0174
      5 C          -0.0006    1.9507    0.0000 C.3     1  UNL1        0.0014
      6 C          -0.8445    1.4628    0.0000 C.3     1  UNL1        0.0001
      7 C          -0.8448    2.4702    0.0000 C.3     1  UNL1        0.0000
      8 C          -0.8442    0.4874    0.0000 C.3     1  UNL1        0.0014
      9 C          -1.6888   -0.0005    0.0000 C.3     1  UNL1        0.0000
     10 C          -2.5336    0.4869    0.0000 C.3     1  UNL1        0.0000
     11 C          -2.5339    1.4623    0.0000 C.3     1  UNL1        0.0000
     12 C          -1.6894    1.9502    0.0000 C.3     1  UNL1        0.0000
     13 C          -1.6896    2.9249    0.0000 C.3     1  UNL1        0.0000
     14 C          -2.5345    3.4123    0.0000 C.3     1  UNL1        0.0001
     15 C          -3.3790    2.9244    0.0000 C.3     1  UNL1        0.0015
     16 C          -3.3793    3.9319    0.0000 C.3     1  UNL1        0.0001
     17 C          -4.2239    3.4119    0.0000 C.3     1  UNL1        0.0182
     18 C          -4.2241    4.3862    0.0000 C.3     1  UNL1        0.0754
     19 C          -3.3805    4.8736    0.0000 C.3     1  UNL1        0.0215
     20 N          -5.0681    4.8731    0.0000 N.am    1  UNL1       -0.2794
     21 C          -5.0683    5.8474    0.0000 C.3     1  UNL1        0.1148
     22 C          -5.9117    4.3857    0.0000 C.2     1  UNL1        0.2261
     23 C          -6.7557    4.8726    0.0000 C.3     1  UNL1        0.0948
     24 O          -5.9114    3.4114    0.0000 O.2     1  UNL1       -0.2749
     25 C          -5.0672    2.9239    0.0000 C.3     1  UNL1        0.0016
     26 C          -5.0669    1.9492    0.0000 C.3     1  UNL1        0.0001
     27 C          -3.3787    1.9497    0.0000 C.3     1  UNL1        0.0001
     28 C           0.0000   -0.0000    0.0000 C.3     1  UNL1        0.0174
@<TRIPOS>BOND
     1     1     2    1
     2     2     3    1
     3     3     4    1
     4     4     5    1
     5     5     6    1
     6     6     7    1
     7     6     8    1
     8     8     9    1
     9     9    10    1
    10    10    11    1
    11    11    12    1
    12     6    12    1
    13    12    13    1
    14    13    14    1
    15    14    15    1
    16    15    16    1
    17    15    17    1
    18    17    18    1
    19    18    19    1
    20    18    20    1
    21    20    21    1
    22    20    22   am
    23    22    23    1
    24    22    24    2
    25    17    25    1
    26    25    26    1
    27    26    27    1
    28    11    27    1
    29    15    27    1
    30     8    28    1
    31     3    28    1
