REMARK  Name = cpd166.pdb
REMARK  4 active torsions:
REMARK  status: ('A' for Active; 'I' for Inactive)
REMARK    1  A    between atoms: C_1  and  C_2
REMARK    2  A    between atoms: C_2  and  C_3
REMARK    3  A    between atoms: C_7  and  C_8
REMARK    4  A    between atoms: C_8  and  C_10
REMARK                            x       y       z     vdW  Elec       q    Type
REMARK                         _______ _______ _______ _____ _____    ______ ____
ROOT
ATOM      1  C   UNL A   1      -1.027  -0.798  -0.021  0.00  0.00    -0.047 A 
ATOM      2  C   UNL A   1      -2.242  -0.105  -0.038  0.00  0.00    -0.059 A 
ATOM      3  C   UNL A   1      -2.266   1.291  -0.058  0.00  0.00    -0.061 A 
ATOM      4  C   UNL A   1      -1.076   2.021  -0.058  0.00  0.00    -0.051 A 
ATOM      5  C   UNL A   1       0.153   1.355  -0.038  0.00  0.00    +0.027 A 
ATOM      6  C   UNL A   1       0.165  -0.050  -0.024  0.00  0.00    -0.048 A 
ENDROOT
BRANCH   1   8
ATOM      7  C   UNL A   1      -2.224  -3.092  -0.012  0.00  0.00    -0.061 C 
ATOM      8  C   UNL A   1      -0.919  -2.306   0.005  0.00  0.00    -0.031 C 
ENDBRANCH   1   8
BRANCH   5   9
ATOM      9  C   UNL A   1       1.464   2.073  -0.032  0.00  0.00    +0.265 C 
ATOM     10  O   UNL A   1       2.499   1.415  -0.166  0.00  0.00    -0.283 OA
BRANCH   9  11
ATOM     11  C   UNL A   1       1.453   3.583   0.136  0.00  0.00    +0.455 C 
ATOM     12  F   UNL A   1       0.852   4.217  -0.911  0.00  0.00    -0.163 F 
ATOM     13  F   UNL A   1       0.778   3.978   1.253  0.00  0.00    -0.163 F 
ATOM     14  F   UNL A   1       2.699   4.122   0.240  0.00  0.00    -0.163 F 
ENDBRANCH   9  11
ENDBRANCH   5   9
TORSDOF 3
