@<TRIPOS>MOLECULE
*****
 14 14 0 0 0
SMALL
GASTEIGER

@<TRIPOS>ATOM
      1 C          -1.7321   -2.0000    0.0000 C.3     1  UNL1        0.0050
      2 C          -0.8660   -1.5000    0.0000 C.3     1  UNL1        0.0264
      3 C          -0.8660   -0.5000    0.0000 C.ar    1  UNL1       -0.0221
      4 C          -1.7321   -0.0000    0.0000 C.ar    1  UNL1       -0.0043
      5 C          -1.7321    1.0000    0.0000 C.ar    1  UNL1       -0.0002
      6 C          -0.8660    1.5000    0.0000 C.ar    1  UNL1        0.0031
      7 C          -0.0000    1.0000    0.0000 C.ar    1  UNL1        0.0428
      8 C           0.8660    1.5000    0.0000 C.2     1  UNL1        0.2666
      9 O           1.7321    1.0000    0.0000 O.2     1  UNL1       -0.2825
     10 C           0.8660    2.5000    0.0000 C.3     1  UNL1        0.4554
     11 F           0.3660    3.3660    0.0000 F       1  UNL1       -0.1631
     12 F          -0.1340    2.5000    0.0000 F       1  UNL1       -0.1631
     13 F           1.7321    3.0000    0.0000 F       1  UNL1       -0.1631
     14 C           0.0000    0.0000    0.0000 C.ar    1  UNL1       -0.0011
@<TRIPOS>BOND
     1     1     2    1
     2     2     3    1
     3     3     4   ar
     4     4     5   ar
     5     5     6   ar
     6     6     7   ar
     7     7     8    1
     8     8     9    2
     9     8    10    1
    10    10    11    1
    11    10    12    1
    12    10    13    1
    13     7    14   ar
    14     3    14   ar
