MODEL 1
REMARK VINA RESULT:    -7.328      0.000      0.000
REMARK INTER + INTRA:          -8.630
REMARK INTER:                  -8.614
REMARK INTRA:                  -0.017
REMARK UNBOUND:                -0.017
REMARK  Name = cpd166.pdb
REMARK  4 active torsions:
REMARK  status: ('A' for Active; 'I' for Inactive)
REMARK    1  A    between atoms: C_1  and  C_2
REMARK    2  A    between atoms: C_2  and  C_3
REMARK    3  A    between atoms: C_7  and  C_8
REMARK    4  A    between atoms: C_8  and  C_10
REMARK                            x       y       z     vdW  Elec       q    Type
REMARK                         _______ _______ _______ _____ _____    ______ ____
ROOT
ATOM      1  C   UNL A   1      46.166 -40.985 -29.836  0.00  0.00    -0.047 A 
ATOM      2  C   UNL A   1      46.161 -41.889 -30.904  0.00  0.00    -0.059 A 
ATOM      3  C   UNL A   1      47.252 -41.972 -31.772  0.00  0.00    -0.061 A 
ATOM      4  C   UNL A   1      48.367 -41.151 -31.591  0.00  0.00    -0.051 A 
ATOM      5  C   UNL A   1      48.398 -40.236 -30.534  0.00  0.00    +0.027 A 
ATOM      6  C   UNL A   1      47.297 -40.166 -29.663  0.00  0.00    -0.048 A 
ENDROOT
BRANCH   1   8
ATOM      7  C   UNL A   1      45.042 -41.736 -27.630  0.00  0.00    -0.061 C 
ATOM      8  C   UNL A   1      45.024 -40.834 -28.857  0.00  0.00    -0.031 C 
ENDBRANCH   1   8
BRANCH   5   9
ATOM      9  C   UNL A   1      49.556 -39.325 -30.285  0.00  0.00    +0.265 C 
ATOM     10  O   UNL A   1      50.526 -39.380 -31.045  0.00  0.00    -0.283 OA
BRANCH   9  11
ATOM     11  C   UNL A   1      49.475 -38.371 -29.105  0.00  0.00    +0.455 C 
ATOM     12  F   UNL A   1      50.564 -37.555 -29.023  0.00  0.00    -0.163 F 
ATOM     13  F   UNL A   1      48.391 -37.547 -29.175  0.00  0.00    -0.163 F 
ATOM     14  F   UNL A   1      49.387 -39.006 -27.904  0.00  0.00    -0.163 F 
ENDBRANCH   9  11
ENDBRANCH   5   9
TORSDOF 3
ENDMDL
MODEL 2
REMARK VINA RESULT:    -7.269      7.687      9.002
REMARK INTER + INTRA:          -8.561
REMARK INTER:                  -8.340
REMARK INTRA:                  -0.221
REMARK UNBOUND:                -0.017
REMARK  Name = cpd166.pdb
REMARK  4 active torsions:
REMARK  status: ('A' for Active; 'I' for Inactive)
REMARK    1  A    between atoms: C_1  and  C_2
REMARK    2  A    between atoms: C_2  and  C_3
REMARK    3  A    between atoms: C_7  and  C_8
REMARK    4  A    between atoms: C_8  and  C_10
REMARK                            x       y       z     vdW  Elec       q    Type
REMARK                         _______ _______ _______ _____ _____    ______ ____
ROOT
ATOM      1  C   UNL A   1      37.912 -36.099 -30.719  0.00  0.00    -0.047 A 
ATOM      2  C   UNL A   1      38.185 -35.049 -31.603  0.00  0.00    -0.059 A 
ATOM      3  C   UNL A   1      39.477 -34.847 -32.093  0.00  0.00    -0.061 A 
ATOM      4  C   UNL A   1      40.522 -35.688 -31.705  0.00  0.00    -0.051 A 
ATOM      5  C   UNL A   1      40.279 -36.743 -30.820  0.00  0.00    +0.027 A 
ATOM      6  C   UNL A   1      38.974 -36.940 -30.339  0.00  0.00    -0.048 A 
ENDROOT
BRANCH   1   8
ATOM      7  C   UNL A   1      36.488 -36.893 -28.711  0.00  0.00    -0.061 C 
ATOM      8  C   UNL A   1      36.542 -36.380 -30.144  0.00  0.00    -0.031 C 
ENDBRANCH   1   8
BRANCH   5   9
ATOM      9  C   UNL A   1      41.351 -37.677 -30.360  0.00  0.00    +0.265 C 
ATOM     10  O   UNL A   1      41.275 -38.151 -29.223  0.00  0.00    -0.283 OA
BRANCH   9  11
ATOM     11  C   UNL A   1      42.483 -37.999 -31.322  0.00  0.00    +0.455 C 
ATOM     12  F   UNL A   1      42.079 -37.976 -32.624  0.00  0.00    -0.163 F 
ATOM     13  F   UNL A   1      43.513 -37.110 -31.231  0.00  0.00    -0.163 F 
ATOM     14  F   UNL A   1      43.029 -39.230 -31.117  0.00  0.00    -0.163 F 
ENDBRANCH   9  11
ENDBRANCH   5   9
TORSDOF 3
ENDMDL
MODEL 3
REMARK VINA RESULT:    -7.164      8.358      9.714
REMARK INTER + INTRA:          -8.438
REMARK INTER:                  -8.114
REMARK INTRA:                  -0.324
REMARK UNBOUND:                -0.017
REMARK  Name = cpd166.pdb
REMARK  4 active torsions:
REMARK  status: ('A' for Active; 'I' for Inactive)
REMARK    1  A    between atoms: C_1  and  C_2
REMARK    2  A    between atoms: C_2  and  C_3
REMARK    3  A    between atoms: C_7  and  C_8
REMARK    4  A    between atoms: C_8  and  C_10
REMARK                            x       y       z     vdW  Elec       q    Type
REMARK                         _______ _______ _______ _____ _____    ______ ____
ROOT
ATOM      1  C   UNL A   1      37.713 -36.890 -29.975  0.00  0.00    -0.047 A 
ATOM      2  C   UNL A   1      36.774 -35.882 -30.219  0.00  0.00    -0.059 A 
ATOM      3  C   UNL A   1      37.046 -34.860 -31.131  0.00  0.00    -0.061 A 
ATOM      4  C   UNL A   1      38.263 -34.824 -31.814  0.00  0.00    -0.051 A 
ATOM      5  C   UNL A   1      39.221 -35.816 -31.587  0.00  0.00    +0.027 A 
ATOM      6  C   UNL A   1      38.935 -36.843 -30.672  0.00  0.00    -0.048 A 
ENDROOT
BRANCH   1   8
ATOM      7  C   UNL A   1      36.811 -37.683 -27.684  0.00  0.00    -0.061 C 
ATOM      8  C   UNL A   1      37.494 -38.026 -29.002  0.00  0.00    -0.031 C 
ENDBRANCH   1   8
BRANCH   5   9
ATOM      9  C   UNL A   1      40.546 -35.836 -32.279  0.00  0.00    +0.265 C 
ATOM     10  O   UNL A   1      40.576 -35.681 -33.503  0.00  0.00    -0.283 OA
BRANCH   9  11
ATOM     11  C   UNL A   1      41.792 -36.043 -31.435  0.00  0.00    +0.455 C 
ATOM     12  F   UNL A   1      42.894 -35.454 -31.983  0.00  0.00    -0.163 F 
ATOM     13  F   UNL A   1      41.667 -35.515 -30.184  0.00  0.00    -0.163 F 
ATOM     14  F   UNL A   1      42.112 -37.354 -31.260  0.00  0.00    -0.163 F 
ENDBRANCH   9  11
ENDBRANCH   5   9
TORSDOF 3
ENDMDL
MODEL 4
REMARK VINA RESULT:    -7.070      4.605      5.797
REMARK INTER + INTRA:          -8.327
REMARK INTER:                  -7.904
REMARK INTRA:                  -0.423
REMARK UNBOUND:                -0.017
REMARK  Name = cpd166.pdb
REMARK  4 active torsions:
REMARK  status: ('A' for Active; 'I' for Inactive)
REMARK    1  A    between atoms: C_1  and  C_2
REMARK    2  A    between atoms: C_2  and  C_3
REMARK    3  A    between atoms: C_7  and  C_8
REMARK    4  A    between atoms: C_8  and  C_10
REMARK                            x       y       z     vdW  Elec       q    Type
REMARK                         _______ _______ _______ _____ _____    ______ ____
ROOT
ATOM      1  C   UNL A   1      40.941 -38.159 -29.551  0.00  0.00    -0.047 A 
ATOM      2  C   UNL A   1      41.005 -37.234 -30.598  0.00  0.00    -0.059 A 
ATOM      3  C   UNL A   1      42.099 -37.213 -31.466  0.00  0.00    -0.061 A 
ATOM      4  C   UNL A   1      43.152 -38.114 -31.301  0.00  0.00    -0.051 A 
ATOM      5  C   UNL A   1      43.117 -39.048 -30.261  0.00  0.00    +0.027 A 
ATOM      6  C   UNL A   1      42.008 -39.064 -29.398  0.00  0.00    -0.048 A 
ENDROOT
BRANCH   1   8
ATOM      7  C   UNL A   1      38.413 -37.861 -29.089  0.00  0.00    -0.061 C 
ATOM      8  C   UNL A   1      39.794 -38.241 -28.570  0.00  0.00    -0.031 C 
ENDBRANCH   1   8
BRANCH   5   9
ATOM      9  C   UNL A   1      44.211 -40.039 -30.024  0.00  0.00    +0.265 C 
ATOM     10  O   UNL A   1      44.202 -41.094 -30.664  0.00  0.00    -0.283 OA
BRANCH   9  11
ATOM     11  C   UNL A   1      45.284 -39.691 -29.006  0.00  0.00    +0.455 C 
ATOM     12  F   UNL A   1      46.339 -40.553 -29.050  0.00  0.00    -0.163 F 
ATOM     13  F   UNL A   1      45.806 -38.447 -29.203  0.00  0.00    -0.163 F 
ATOM     14  F   UNL A   1      44.833 -39.710 -27.721  0.00  0.00    -0.163 F 
ENDBRANCH   9  11
ENDBRANCH   5   9
TORSDOF 3
ENDMDL
MODEL 5
REMARK VINA RESULT:    -6.961      8.097      9.311
REMARK INTER + INTRA:          -8.198
REMARK INTER:                  -8.030
REMARK INTRA:                  -0.169
REMARK UNBOUND:                -0.017
REMARK  Name = cpd166.pdb
REMARK  4 active torsions:
REMARK  status: ('A' for Active; 'I' for Inactive)
REMARK    1  A    between atoms: C_1  and  C_2
REMARK    2  A    between atoms: C_2  and  C_3
REMARK    3  A    between atoms: C_7  and  C_8
REMARK    4  A    between atoms: C_8  and  C_10
REMARK                            x       y       z     vdW  Elec       q    Type
REMARK                         _______ _______ _______ _____ _____    ______ ____
ROOT
ATOM      1  C   UNL A   1      41.246 -38.059 -29.743  0.00  0.00    -0.047 A 
ATOM      2  C   UNL A   1      42.293 -38.441 -30.588  0.00  0.00    -0.059 A 
ATOM      3  C   UNL A   1      42.555 -37.734 -31.763  0.00  0.00    -0.061 A 
ATOM      4  C   UNL A   1      41.774 -36.633 -32.117  0.00  0.00    -0.051 A 
ATOM      5  C   UNL A   1      40.719 -36.229 -31.293  0.00  0.00    +0.027 A 
ATOM      6  C   UNL A   1      40.468 -36.945 -30.110  0.00  0.00    -0.048 A 
ENDROOT
BRANCH   1   8
ATOM      7  C   UNL A   1      39.436 -38.754 -28.029  0.00  0.00    -0.061 C 
ATOM      8  C   UNL A   1      40.898 -38.775 -28.457  0.00  0.00    -0.031 C 
ENDBRANCH   1   8
BRANCH   5   9
ATOM      9  C   UNL A   1      39.840 -35.064 -31.613  0.00  0.00    +0.265 C 
ATOM     10  O   UNL A   1      40.358 -33.953 -31.753  0.00  0.00    -0.283 OA
BRANCH   9  11
ATOM     11  C   UNL A   1      38.347 -35.310 -31.755  0.00  0.00    +0.455 C 
ATOM     12  F   UNL A   1      38.035 -35.946 -32.920  0.00  0.00    -0.163 F 
ATOM     13  F   UNL A   1      37.850 -36.091 -30.754  0.00  0.00    -0.163 F 
ATOM     14  F   UNL A   1      37.609 -34.165 -31.740  0.00  0.00    -0.163 F 
ENDBRANCH   9  11
ENDBRANCH   5   9
TORSDOF 3
ENDMDL
MODEL 6
REMARK VINA RESULT:    -6.927      7.798      9.278
REMARK INTER + INTRA:          -8.159
REMARK INTER:                  -8.006
REMARK INTRA:                  -0.153
REMARK UNBOUND:                -0.017
REMARK  Name = cpd166.pdb
REMARK  4 active torsions:
REMARK  status: ('A' for Active; 'I' for Inactive)
REMARK    1  A    between atoms: C_1  and  C_2
REMARK    2  A    between atoms: C_2  and  C_3
REMARK    3  A    between atoms: C_7  and  C_8
REMARK    4  A    between atoms: C_8  and  C_10
REMARK                            x       y       z     vdW  Elec       q    Type
REMARK                         _______ _______ _______ _____ _____    ______ ____
ROOT
ATOM      1  C   UNL A   1      38.018 -37.166 -29.786  0.00  0.00    -0.047 A 
ATOM      2  C   UNL A   1      38.352 -37.993 -28.708  0.00  0.00    -0.059 A 
ATOM      3  C   UNL A   1      39.678 -38.362 -28.477  0.00  0.00    -0.061 A 
ATOM      4  C   UNL A   1      40.696 -37.915 -29.321  0.00  0.00    -0.051 A 
ATOM      5  C   UNL A   1      40.392 -37.091 -30.408  0.00  0.00    +0.027 A 
ATOM      6  C   UNL A   1      39.055 -36.720 -30.628  0.00  0.00    -0.048 A 
ENDROOT
BRANCH   1   8
ATOM      7  C   UNL A   1      36.410 -35.266 -30.492  0.00  0.00    -0.061 C 
ATOM      8  C   UNL A   1      36.607 -36.726 -30.104  0.00  0.00    -0.031 C 
ENDBRANCH   1   8
BRANCH   5   9
ATOM      9  C   UNL A   1      41.431 -36.580 -31.354  0.00  0.00    +0.265 C 
ATOM     10  O   UNL A   1      42.474 -37.225 -31.491  0.00  0.00    -0.283 OA
BRANCH   9  11
ATOM     11  C   UNL A   1      41.145 -35.290 -32.104  0.00  0.00    +0.455 C 
ATOM     12  F   UNL A   1      42.274 -34.736 -32.632  0.00  0.00    -0.163 F 
ATOM     13  F   UNL A   1      40.290 -35.473 -33.150  0.00  0.00    -0.163 F 
ATOM     14  F   UNL A   1      40.581 -34.327 -31.322  0.00  0.00    -0.163 F 
ENDBRANCH   9  11
ENDBRANCH   5   9
TORSDOF 3
ENDMDL
MODEL 7
REMARK VINA RESULT:    -6.878      8.344      9.497
REMARK INTER + INTRA:          -8.100
REMARK INTER:                  -7.890
REMARK INTRA:                  -0.210
REMARK UNBOUND:                -0.017
REMARK  Name = cpd166.pdb
REMARK  4 active torsions:
REMARK  status: ('A' for Active; 'I' for Inactive)
REMARK    1  A    between atoms: C_1  and  C_2
REMARK    2  A    between atoms: C_2  and  C_3
REMARK    3  A    between atoms: C_7  and  C_8
REMARK    4  A    between atoms: C_8  and  C_10
REMARK                            x       y       z     vdW  Elec       q    Type
REMARK                         _______ _______ _______ _____ _____    ______ ____
ROOT
ATOM      1  C   UNL A   1      37.992 -37.794 -29.588  0.00  0.00    -0.047 A 
ATOM      2  C   UNL A   1      38.959 -38.330 -28.731  0.00  0.00    -0.059 A 
ATOM      3  C   UNL A   1      40.304 -37.980 -28.867  0.00  0.00    -0.061 A 
ATOM      4  C   UNL A   1      40.708 -37.090 -29.864  0.00  0.00    -0.051 A 
ATOM      5  C   UNL A   1      39.764 -36.541 -30.736  0.00  0.00    +0.027 A 
ATOM      6  C   UNL A   1      38.413 -36.896 -30.586  0.00  0.00    -0.048 A 
ENDROOT
BRANCH   1   8
ATOM      7  C   UNL A   1      35.886 -38.762 -30.738  0.00  0.00    -0.061 C 
ATOM      8  C   UNL A   1      36.519 -38.127 -29.507  0.00  0.00    -0.031 C 
ENDBRANCH   1   8
BRANCH   5   9
ATOM      9  C   UNL A   1      40.127 -35.587 -31.828  0.00  0.00    +0.265 C 
ATOM     10  O   UNL A   1      39.556 -34.494 -31.872  0.00  0.00    -0.283 OA
BRANCH   9  11
ATOM     11  C   UNL A   1      41.187 -36.014 -32.829  0.00  0.00    +0.455 C 
ATOM     12  F   UNL A   1      40.721 -36.013 -34.111  0.00  0.00    -0.163 F 
ATOM     13  F   UNL A   1      42.272 -35.189 -32.823  0.00  0.00    -0.163 F 
ATOM     14  F   UNL A   1      41.667 -37.268 -32.603  0.00  0.00    -0.163 F 
ENDBRANCH   9  11
ENDBRANCH   5   9
TORSDOF 3
ENDMDL
MODEL 8
REMARK VINA RESULT:    -6.841      9.034     10.435
REMARK INTER + INTRA:          -8.057
REMARK INTER:                  -7.777
REMARK INTRA:                  -0.281
REMARK UNBOUND:                -0.017
REMARK  Name = cpd166.pdb
REMARK  4 active torsions:
REMARK  status: ('A' for Active; 'I' for Inactive)
REMARK    1  A    between atoms: C_1  and  C_2
REMARK    2  A    between atoms: C_2  and  C_3
REMARK    3  A    between atoms: C_7  and  C_8
REMARK    4  A    between atoms: C_8  and  C_10
REMARK                            x       y       z     vdW  Elec       q    Type
REMARK                         _______ _______ _______ _____ _____    ______ ____
ROOT
ATOM      1  C   UNL A   1      36.736 -35.103 -30.650  0.00  0.00    -0.047 A 
ATOM      2  C   UNL A   1      36.533 -36.116 -29.707  0.00  0.00    -0.059 A 
ATOM      3  C   UNL A   1      37.506 -37.095 -29.493  0.00  0.00    -0.061 A 
ATOM      4  C   UNL A   1      38.698 -37.082 -30.219  0.00  0.00    -0.051 A 
ATOM      5  C   UNL A   1      38.927 -36.083 -31.169  0.00  0.00    +0.027 A 
ATOM      6  C   UNL A   1      37.944 -35.099 -31.372  0.00  0.00    -0.048 A 
ENDROOT
BRANCH   1   8
ATOM      7  C   UNL A   1      34.677 -33.741 -29.874  0.00  0.00    -0.061 C 
ATOM      8  C   UNL A   1      35.731 -34.011 -30.941  0.00  0.00    -0.031 C 
ENDBRANCH   1   8
BRANCH   5   9
ATOM      9  C   UNL A   1      40.177 -36.011 -31.985  0.00  0.00    +0.265 C 
ATOM     10  O   UNL A   1      40.111 -35.554 -33.129  0.00  0.00    -0.283 OA
BRANCH   9  11
ATOM     11  C   UNL A   1      41.471 -36.503 -31.358  0.00  0.00    +0.455 C 
ATOM     12  F   UNL A   1      42.570 -36.115 -32.065  0.00  0.00    -0.163 F 
ATOM     13  F   UNL A   1      41.650 -36.027 -30.092  0.00  0.00    -0.163 F 
ATOM     14  F   UNL A   1      41.540 -37.859 -31.263  0.00  0.00    -0.163 F 
ENDBRANCH   9  11
ENDBRANCH   5   9
TORSDOF 3
ENDMDL
MODEL 9
REMARK VINA RESULT:    -6.697      9.252     10.875
REMARK INTER + INTRA:          -7.888
REMARK INTER:                  -7.550
REMARK INTRA:                  -0.338
REMARK UNBOUND:                -0.017
REMARK  Name = cpd166.pdb
REMARK  4 active torsions:
REMARK  status: ('A' for Active; 'I' for Inactive)
REMARK    1  A    between atoms: C_1  and  C_2
REMARK    2  A    between atoms: C_2  and  C_3
REMARK    3  A    between atoms: C_7  and  C_8
REMARK    4  A    between atoms: C_8  and  C_10
REMARK                            x       y       z     vdW  Elec       q    Type
REMARK                         _______ _______ _______ _____ _____    ______ ____
ROOT
ATOM      1  C   UNL A   1      40.575 -35.970 -31.293  0.00  0.00    -0.047 A 
ATOM      2  C   UNL A   1      40.120 -34.753 -31.813  0.00  0.00    -0.059 A 
ATOM      3  C   UNL A   1      38.760 -34.436 -31.799  0.00  0.00    -0.061 A 
ATOM      4  C   UNL A   1      37.829 -35.330 -31.268  0.00  0.00    -0.051 A 
ATOM      5  C   UNL A   1      38.254 -36.555 -30.745  0.00  0.00    +0.027 A 
ATOM      6  C   UNL A   1      39.626 -36.861 -30.759  0.00  0.00    -0.048 A 
ENDROOT
BRANCH   1   8
ATOM      7  C   UNL A   1      42.370 -37.726 -31.916  0.00  0.00    -0.061 C 
ATOM      8  C   UNL A   1      42.028 -36.386 -31.276  0.00  0.00    -0.031 C 
ENDBRANCH   1   8
BRANCH   5   9
ATOM      9  C   UNL A   1      37.312 -37.560 -30.166  0.00  0.00    +0.265 C 
ATOM     10  O   UNL A   1      36.693 -38.301 -30.934  0.00  0.00    -0.283 OA
BRANCH   9  11
ATOM     11  C   UNL A   1      37.167 -37.619 -28.654  0.00  0.00    +0.455 C 
ATOM     12  F   UNL A   1      36.558 -38.765 -28.236  0.00  0.00    -0.163 F 
ATOM     13  F   UNL A   1      38.370 -37.577 -28.014  0.00  0.00    -0.163 F 
ATOM     14  F   UNL A   1      36.434 -36.593 -28.143  0.00  0.00    -0.163 F 
ENDBRANCH   9  11
ENDBRANCH   5   9
TORSDOF 3
ENDMDL
MODEL 10
REMARK VINA RESULT:    -6.635      4.918      6.296
REMARK INTER + INTRA:          -7.815
REMARK INTER:                  -7.383
REMARK INTRA:                  -0.432
REMARK UNBOUND:                -0.017
REMARK  Name = cpd166.pdb
REMARK  4 active torsions:
REMARK  status: ('A' for Active; 'I' for Inactive)
REMARK    1  A    between atoms: C_1  and  C_2
REMARK    2  A    between atoms: C_2  and  C_3
REMARK    3  A    between atoms: C_7  and  C_8
REMARK    4  A    between atoms: C_8  and  C_10
REMARK                            x       y       z     vdW  Elec       q    Type
REMARK                         _______ _______ _______ _____ _____    ______ ____
ROOT
ATOM      1  C   UNL A   1      41.739 -37.483 -31.321  0.00  0.00    -0.047 A 
ATOM      2  C   UNL A   1      40.723 -37.759 -30.399  0.00  0.00    -0.059 A 
ATOM      3  C   UNL A   1      40.973 -38.558 -29.281  0.00  0.00    -0.061 A 
ATOM      4  C   UNL A   1      42.241 -39.098 -29.065  0.00  0.00    -0.051 A 
ATOM      5  C   UNL A   1      43.275 -38.842 -29.971  0.00  0.00    +0.027 A 
ATOM      6  C   UNL A   1      43.013 -38.032 -31.089  0.00  0.00    -0.048 A 
ENDROOT
BRANCH   1   8
ATOM      7  C   UNL A   1      41.129 -35.183 -32.337  0.00  0.00    -0.061 C 
ATOM      8  C   UNL A   1      41.546 -36.632 -32.555  0.00  0.00    -0.031 C 
ENDBRANCH   1   8
BRANCH   5   9
ATOM      9  C   UNL A   1      44.654 -39.392 -29.803  0.00  0.00    +0.265 C 
ATOM     10  O   UNL A   1      45.547 -38.639 -29.404  0.00  0.00    -0.283 OA
BRANCH   9  11
ATOM     11  C   UNL A   1      44.886 -40.857 -30.132  0.00  0.00    +0.455 C 
ATOM     12  F   UNL A   1      44.249 -41.240 -31.275  0.00  0.00    -0.163 F 
ATOM     13  F   UNL A   1      46.205 -41.146 -30.322  0.00  0.00    -0.163 F 
ATOM     14  F   UNL A   1      44.453 -41.703 -29.156  0.00  0.00    -0.163 F 
ENDBRANCH   9  11
ENDBRANCH   5   9
TORSDOF 3
ENDMDL
MODEL 11
REMARK VINA RESULT:    -6.557     11.041     12.636
REMARK INTER + INTRA:          -7.723
REMARK INTER:                  -7.411
REMARK INTRA:                  -0.312
REMARK UNBOUND:                -0.017
REMARK  Name = cpd166.pdb
REMARK  4 active torsions:
REMARK  status: ('A' for Active; 'I' for Inactive)
REMARK    1  A    between atoms: C_1  and  C_2
REMARK    2  A    between atoms: C_2  and  C_3
REMARK    3  A    between atoms: C_7  and  C_8
REMARK    4  A    between atoms: C_8  and  C_10
REMARK                            x       y       z     vdW  Elec       q    Type
REMARK                         _______ _______ _______ _____ _____    ______ ____
ROOT
ATOM      1  C   UNL A   1      38.940 -36.189 -31.576  0.00  0.00    -0.047 A 
ATOM      2  C   UNL A   1      39.041 -36.964 -30.416  0.00  0.00    -0.059 A 
ATOM      3  C   UNL A   1      38.000 -36.995 -29.487  0.00  0.00    -0.061 A 
ATOM      4  C   UNL A   1      36.839 -36.249 -29.697  0.00  0.00    -0.051 A 
ATOM      5  C   UNL A   1      36.711 -35.463 -30.846  0.00  0.00    +0.027 A 
ATOM      6  C   UNL A   1      37.763 -35.444 -31.777  0.00  0.00    -0.048 A 
ENDROOT
BRANCH   1   8
ATOM      7  C   UNL A   1      41.401 -36.629 -32.244  0.00  0.00    -0.061 C 
ATOM      8  C   UNL A   1      40.024 -36.101 -32.627  0.00  0.00    -0.031 C 
ENDBRANCH   1   8
BRANCH   5   9
ATOM      9  C   UNL A   1      35.499 -34.636 -31.132  0.00  0.00    +0.265 C 
ATOM     10  O   UNL A   1      34.484 -35.200 -31.549  0.00  0.00    -0.283 OA
BRANCH   9  11
ATOM     11  C   UNL A   1      35.580 -33.138 -30.890  0.00  0.00    +0.455 C 
ATOM     12  F   UNL A   1      34.845 -32.427 -31.792  0.00  0.00    -0.163 F 
ATOM     13  F   UNL A   1      35.113 -32.783 -29.659  0.00  0.00    -0.163 F 
ATOM     14  F   UNL A   1      36.848 -32.649 -30.966  0.00  0.00    -0.163 F 
ENDBRANCH   9  11
ENDBRANCH   5   9
TORSDOF 3
ENDMDL
MODEL 12
REMARK VINA RESULT:    -6.509     10.815     12.286
REMARK INTER + INTRA:          -7.667
REMARK INTER:                  -7.440
REMARK INTRA:                  -0.226
REMARK UNBOUND:                -0.017
REMARK  Name = cpd166.pdb
REMARK  4 active torsions:
REMARK  status: ('A' for Active; 'I' for Inactive)
REMARK    1  A    between atoms: C_1  and  C_2
REMARK    2  A    between atoms: C_2  and  C_3
REMARK    3  A    between atoms: C_7  and  C_8
REMARK    4  A    between atoms: C_8  and  C_10
REMARK                            x       y       z     vdW  Elec       q    Type
REMARK                         _______ _______ _______ _____ _____    ______ ____
ROOT
ATOM      1  C   UNL A   1      38.447 -37.103 -29.821  0.00  0.00    -0.047 A 
ATOM      2  C   UNL A   1      39.429 -36.881 -30.792  0.00  0.00    -0.059 A 
ATOM      3  C   UNL A   1      39.202 -35.992 -31.845  0.00  0.00    -0.061 A 
ATOM      4  C   UNL A   1      37.988 -35.312 -31.949  0.00  0.00    -0.051 A 
ATOM      5  C   UNL A   1      36.987 -35.516 -30.995  0.00  0.00    +0.027 A 
ATOM      6  C   UNL A   1      37.229 -36.408 -29.936  0.00  0.00    -0.048 A 
ENDROOT
BRANCH   1   8
ATOM      7  C   UNL A   1      40.042 -38.416 -28.263  0.00  0.00    -0.061 C 
ATOM      8  C   UNL A   1      38.616 -38.051 -28.655  0.00  0.00    -0.031 C 
ENDBRANCH   1   8
BRANCH   5   9
ATOM      9  C   UNL A   1      35.663 -34.825 -31.048  0.00  0.00    +0.265 C 
ATOM     10  O   UNL A   1      34.647 -35.505 -31.213  0.00  0.00    -0.283 OA
BRANCH   9  11
ATOM     11  C   UNL A   1      35.637 -33.314 -30.891  0.00  0.00    +0.455 C 
ATOM     12  F   UNL A   1      36.876 -32.759 -31.009  0.00  0.00    -0.163 F 
ATOM     13  F   UNL A   1      34.860 -32.706 -31.833  0.00  0.00    -0.163 F 
ATOM     14  F   UNL A   1      35.153 -32.906 -29.685  0.00  0.00    -0.163 F 
ENDBRANCH   9  11
ENDBRANCH   5   9
TORSDOF 3
ENDMDL
MODEL 13
REMARK VINA RESULT:    -6.508      9.021     10.608
REMARK INTER + INTRA:          -7.666
REMARK INTER:                  -7.570
REMARK INTRA:                  -0.096
REMARK UNBOUND:                -0.017
REMARK  Name = cpd166.pdb
REMARK  4 active torsions:
REMARK  status: ('A' for Active; 'I' for Inactive)
REMARK    1  A    between atoms: C_1  and  C_2
REMARK    2  A    between atoms: C_2  and  C_3
REMARK    3  A    between atoms: C_7  and  C_8
REMARK    4  A    between atoms: C_8  and  C_10
REMARK                            x       y       z     vdW  Elec       q    Type
REMARK                         _______ _______ _______ _____ _____    ______ ____
ROOT
ATOM      1  C   UNL A   1      41.057 -36.647 -31.384  0.00  0.00    -0.047 A 
ATOM      2  C   UNL A   1      40.446 -36.042 -32.487  0.00  0.00    -0.059 A 
ATOM      3  C   UNL A   1      39.063 -35.851 -32.520  0.00  0.00    -0.061 A 
ATOM      4  C   UNL A   1      38.265 -36.262 -31.451  0.00  0.00    -0.051 A 
ATOM      5  C   UNL A   1      38.848 -36.872 -30.336  0.00  0.00    +0.027 A 
ATOM      6  C   UNL A   1      40.241 -37.054 -30.312  0.00  0.00    -0.048 A 
ENDROOT
BRANCH   1   8
ATOM      7  C   UNL A   1      42.999 -38.341 -31.154  0.00  0.00    -0.061 C 
ATOM      8  C   UNL A   1      42.545 -36.892 -31.277  0.00  0.00    -0.031 C 
ENDBRANCH   1   8
BRANCH   5   9
ATOM      9  C   UNL A   1      38.054 -37.341 -29.160  0.00  0.00    +0.265 C 
ATOM     10  O   UNL A   1      38.589 -38.105 -28.352  0.00  0.00    -0.283 OA
BRANCH   9  11
ATOM     11  C   UNL A   1      36.624 -36.847 -29.018  0.00  0.00    +0.455 C 
ATOM     12  F   UNL A   1      35.742 -37.601 -29.735  0.00  0.00    -0.163 F 
ATOM     13  F   UNL A   1      36.187 -36.881 -27.727  0.00  0.00    -0.163 F 
ATOM     14  F   UNL A   1      36.454 -35.563 -29.439  0.00  0.00    -0.163 F 
ENDBRANCH   9  11
ENDBRANCH   5   9
TORSDOF 3
ENDMDL
MODEL 14
REMARK VINA RESULT:    -6.462      9.164     10.835
REMARK INTER + INTRA:          -7.612
REMARK INTER:                  -7.198
REMARK INTRA:                  -0.414
REMARK UNBOUND:                -0.017
REMARK  Name = cpd166.pdb
REMARK  4 active torsions:
REMARK  status: ('A' for Active; 'I' for Inactive)
REMARK    1  A    between atoms: C_1  and  C_2
REMARK    2  A    between atoms: C_2  and  C_3
REMARK    3  A    between atoms: C_7  and  C_8
REMARK    4  A    between atoms: C_8  and  C_10
REMARK                            x       y       z     vdW  Elec       q    Type
REMARK                         _______ _______ _______ _____ _____    ______ ____
ROOT
ATOM      1  C   UNL A   1      40.327 -36.294 -31.498  0.00  0.00    -0.047 A 
ATOM      2  C   UNL A   1      39.463 -35.331 -32.031  0.00  0.00    -0.059 A 
ATOM      3  C   UNL A   1      38.147 -35.225 -31.577  0.00  0.00    -0.061 A 
ATOM      4  C   UNL A   1      37.668 -36.080 -30.583  0.00  0.00    -0.051 A 
ATOM      5  C   UNL A   1      38.508 -37.054 -30.034  0.00  0.00    +0.027 A 
ATOM      6  C   UNL A   1      39.832 -37.148 -30.495  0.00  0.00    -0.048 A 
ENDROOT
BRANCH   1   8
ATOM      7  C   UNL A   1      42.361 -37.866 -31.787  0.00  0.00    -0.061 C 
ATOM      8  C   UNL A   1      41.761 -36.474 -31.940  0.00  0.00    -0.031 C 
ENDBRANCH   1   8
BRANCH   5   9
ATOM      9  C   UNL A   1      38.060 -38.005 -28.971  0.00  0.00    +0.265 C 
ATOM     10  O   UNL A   1      38.714 -38.075 -27.927  0.00  0.00    -0.283 OA
BRANCH   9  11
ATOM     11  C   UNL A   1      36.815 -38.836 -29.232  0.00  0.00    +0.455 C 
ATOM     12  F   UNL A   1      36.849 -40.036 -28.587  0.00  0.00    -0.163 F 
ATOM     13  F   UNL A   1      35.676 -38.214 -28.812  0.00  0.00    -0.163 F 
ATOM     14  F   UNL A   1      36.624 -39.120 -30.550  0.00  0.00    -0.163 F 
ENDBRANCH   9  11
ENDBRANCH   5   9
TORSDOF 3
ENDMDL
MODEL 15
REMARK VINA RESULT:    -6.320      9.587     11.193
REMARK INTER + INTRA:          -7.445
REMARK INTER:                  -7.005
REMARK INTRA:                  -0.440
REMARK UNBOUND:                -0.017
REMARK  Name = cpd166.pdb
REMARK  4 active torsions:
REMARK  status: ('A' for Active; 'I' for Inactive)
REMARK    1  A    between atoms: C_1  and  C_2
REMARK    2  A    between atoms: C_2  and  C_3
REMARK    3  A    between atoms: C_7  and  C_8
REMARK    4  A    between atoms: C_8  and  C_10
REMARK                            x       y       z     vdW  Elec       q    Type
REMARK                         _______ _______ _______ _____ _____    ______ ____
ROOT
ATOM      1  C   UNL A   1      40.470 -36.798 -30.811  0.00  0.00    -0.047 A 
ATOM      2  C   UNL A   1      41.037 -37.627 -29.837  0.00  0.00    -0.059 A 
ATOM      3  C   UNL A   1      40.236 -38.251 -28.879  0.00  0.00    -0.061 A 
ATOM      4  C   UNL A   1      38.854 -38.056 -28.873  0.00  0.00    -0.051 A 
ATOM      5  C   UNL A   1      38.260 -37.231 -29.833  0.00  0.00    +0.027 A 
ATOM      6  C   UNL A   1      39.075 -36.612 -30.796  0.00  0.00    -0.048 A 
ENDROOT
BRANCH   1   8
ATOM      7  C   UNL A   1      41.232 -36.678 -33.281  0.00  0.00    -0.061 C 
ATOM      8  C   UNL A   1      41.270 -36.085 -31.878  0.00  0.00    -0.031 C 
ENDBRANCH   1   8
BRANCH   5   9
ATOM      9  C   UNL A   1      36.788 -36.974 -29.883  0.00  0.00    +0.265 C 
ATOM     10  O   UNL A   1      36.373 -35.853 -29.580  0.00  0.00    -0.283 OA
BRANCH   9  11
ATOM     11  C   UNL A   1      35.877 -38.113 -30.309  0.00  0.00    +0.455 C 
ATOM     12  F   UNL A   1      35.627 -38.986 -29.291  0.00  0.00    -0.163 F 
ATOM     13  F   UNL A   1      34.659 -37.674 -30.735  0.00  0.00    -0.163 F 
ATOM     14  F   UNL A   1      36.386 -38.857 -31.329  0.00  0.00    -0.163 F 
ENDBRANCH   9  11
ENDBRANCH   5   9
TORSDOF 3
ENDMDL
MODEL 16
REMARK VINA RESULT:    -6.278     30.527     31.780
REMARK INTER + INTRA:          -7.396
REMARK INTER:                  -6.962
REMARK INTRA:                  -0.434
REMARK UNBOUND:                -0.017
REMARK  Name = cpd166.pdb
REMARK  4 active torsions:
REMARK  status: ('A' for Active; 'I' for Inactive)
REMARK    1  A    between atoms: C_1  and  C_2
REMARK    2  A    between atoms: C_2  and  C_3
REMARK    3  A    between atoms: C_7  and  C_8
REMARK    4  A    between atoms: C_8  and  C_10
REMARK                            x       y       z     vdW  Elec       q    Type
REMARK                         _______ _______ _______ _____ _____    ______ ____
ROOT
ATOM      1  C   UNL A   1      63.590 -23.053  -6.695  0.00  0.00    -0.047 A 
ATOM      2  C   UNL A   1      63.448 -22.788  -8.061  0.00  0.00    -0.059 A 
ATOM      3  C   UNL A   1      63.654 -23.794  -9.007  0.00  0.00    -0.061 A 
ATOM      4  C   UNL A   1      64.010 -25.083  -8.606  0.00  0.00    -0.051 A 
ATOM      5  C   UNL A   1      64.161 -25.376  -7.248  0.00  0.00    +0.027 A 
ATOM      6  C   UNL A   1      63.945 -24.357  -6.304  0.00  0.00    -0.048 A 
ENDROOT
BRANCH   1   8
ATOM      7  C   UNL A   1      62.404 -22.364  -4.500  0.00  0.00    -0.061 C 
ATOM      8  C   UNL A   1      63.387 -22.018  -5.611  0.00  0.00    -0.031 C 
ENDBRANCH   1   8
BRANCH   5   9
ATOM      9  C   UNL A   1      64.544 -26.732  -6.749  0.00  0.00    +0.265 C 
ATOM     10  O   UNL A   1      65.742 -27.014  -6.666  0.00  0.00    -0.283 OA
BRANCH   9  11
ATOM     11  C   UNL A   1      63.433 -27.694  -6.366  0.00  0.00    +0.455 C 
ATOM     12  F   UNL A   1      62.932 -27.440  -5.124  0.00  0.00    -0.163 F 
ATOM     13  F   UNL A   1      62.372 -27.631  -7.220  0.00  0.00    -0.163 F 
ATOM     14  F   UNL A   1      63.829 -28.997  -6.355  0.00  0.00    -0.163 F 
ENDBRANCH   9  11
ENDBRANCH   5   9
TORSDOF 3
ENDMDL
MODEL 17
REMARK VINA RESULT:    -6.158     10.526     12.214
REMARK INTER + INTRA:          -7.255
REMARK INTER:                  -6.867
REMARK INTRA:                  -0.388
REMARK UNBOUND:                -0.017
REMARK  Name = cpd166.pdb
REMARK  4 active torsions:
REMARK  status: ('A' for Active; 'I' for Inactive)
REMARK    1  A    between atoms: C_1  and  C_2
REMARK    2  A    between atoms: C_2  and  C_3
REMARK    3  A    between atoms: C_7  and  C_8
REMARK    4  A    between atoms: C_8  and  C_10
REMARK                            x       y       z     vdW  Elec       q    Type
REMARK                         _______ _______ _______ _____ _____    ______ ____
ROOT
ATOM      1  C   UNL A   1      39.613 -36.887 -30.706  0.00  0.00    -0.047 A 
ATOM      2  C   UNL A   1      39.459 -37.632 -29.533  0.00  0.00    -0.059 A 
ATOM      3  C   UNL A   1      38.268 -37.576 -28.804  0.00  0.00    -0.061 A 
ATOM      4  C   UNL A   1      37.211 -36.772 -29.234  0.00  0.00    -0.051 A 
ATOM      5  C   UNL A   1      37.339 -36.014 -30.401  0.00  0.00    +0.027 A 
ATOM      6  C   UNL A   1      38.539 -36.082 -31.129  0.00  0.00    -0.048 A 
ENDROOT
BRANCH   1   8
ATOM      7  C   UNL A   1      41.499 -35.538 -31.855  0.00  0.00    -0.061 C 
ATOM      8  C   UNL A   1      40.871 -36.891 -31.546  0.00  0.00    -0.031 C 
ENDBRANCH   1   8
BRANCH   5   9
ATOM      9  C   UNL A   1      36.250 -35.128 -30.916  0.00  0.00    +0.265 C 
ATOM     10  O   UNL A   1      36.460 -33.915 -30.989  0.00  0.00    -0.283 OA
BRANCH   9  11
ATOM     11  C   UNL A   1      34.937 -35.773 -31.327  0.00  0.00    +0.455 C 
ATOM     12  F   UNL A   1      33.951 -35.573 -30.406  0.00  0.00    -0.163 F 
ATOM     13  F   UNL A   1      34.459 -35.277 -32.504  0.00  0.00    -0.163 F 
ATOM     14  F   UNL A   1      35.028 -37.121 -31.496  0.00  0.00    -0.163 F 
ENDBRANCH   9  11
ENDBRANCH   5   9
TORSDOF 3
ENDMDL
MODEL 18
REMARK VINA RESULT:    -6.153      9.882     11.614
REMARK INTER + INTRA:          -7.249
REMARK INTER:                  -6.927
REMARK INTRA:                  -0.322
REMARK UNBOUND:                -0.017
REMARK  Name = cpd166.pdb
REMARK  4 active torsions:
REMARK  status: ('A' for Active; 'I' for Inactive)
REMARK    1  A    between atoms: C_1  and  C_2
REMARK    2  A    between atoms: C_2  and  C_3
REMARK    3  A    between atoms: C_7  and  C_8
REMARK    4  A    between atoms: C_8  and  C_10
REMARK                            x       y       z     vdW  Elec       q    Type
REMARK                         _______ _______ _______ _____ _____    ______ ____
ROOT
ATOM      1  C   UNL A   1      39.812 -36.787 -30.804  0.00  0.00    -0.047 A 
ATOM      2  C   UNL A   1      40.487 -37.413 -29.751  0.00  0.00    -0.059 A 
ATOM      3  C   UNL A   1      39.779 -38.043 -28.726  0.00  0.00    -0.061 A 
ATOM      4  C   UNL A   1      38.383 -38.057 -28.732  0.00  0.00    -0.051 A 
ATOM      5  C   UNL A   1      37.682 -37.436 -29.770  0.00  0.00    +0.027 A 
ATOM      6  C   UNL A   1      38.405 -36.810 -30.799  0.00  0.00    -0.048 A 
ENDROOT
BRANCH   1   8
ATOM      7  C   UNL A   1      41.462 -36.912 -32.793  0.00  0.00    -0.061 C 
ATOM      8  C   UNL A   1      40.507 -36.081 -31.947  0.00  0.00    -0.031 C 
ENDBRANCH   1   8
BRANCH   5   9
ATOM      9  C   UNL A   1      36.189 -37.408 -29.837  0.00  0.00    +0.265 C 
ATOM     10  O   UNL A   1      35.596 -38.413 -30.238  0.00  0.00    -0.283 OA
BRANCH   9  11
ATOM     11  C   UNL A   1      35.476 -36.139 -29.401  0.00  0.00    +0.455 C 
ATOM     12  F   UNL A   1      34.216 -36.050 -29.913  0.00  0.00    -0.163 F 
ATOM     13  F   UNL A   1      35.339 -36.056 -28.047  0.00  0.00    -0.163 F 
ATOM     14  F   UNL A   1      36.121 -35.002 -29.784  0.00  0.00    -0.163 F 
ENDBRANCH   9  11
ENDBRANCH   5   9
TORSDOF 3
ENDMDL
MODEL 19
REMARK VINA RESULT:    -5.996     10.300     11.858
REMARK INTER + INTRA:          -7.064
REMARK INTER:                  -6.621
REMARK INTRA:                  -0.443
REMARK UNBOUND:                -0.017
REMARK  Name = cpd166.pdb
REMARK  4 active torsions:
REMARK  status: ('A' for Active; 'I' for Inactive)
REMARK    1  A    between atoms: C_1  and  C_2
REMARK    2  A    between atoms: C_2  and  C_3
REMARK    3  A    between atoms: C_7  and  C_8
REMARK    4  A    between atoms: C_8  and  C_10
REMARK                            x       y       z     vdW  Elec       q    Type
REMARK                         _______ _______ _______ _____ _____    ______ ____
ROOT
ATOM      1  C   UNL A   1      36.726 -35.220 -30.637  0.00  0.00    -0.047 A 
ATOM      2  C   UNL A   1      37.796 -35.065 -31.524  0.00  0.00    -0.059 A 
ATOM      3  C   UNL A   1      38.882 -35.942 -31.490  0.00  0.00    -0.061 A 
ATOM      4  C   UNL A   1      38.921 -36.987 -30.566  0.00  0.00    -0.051 A 
ATOM      5  C   UNL A   1      37.867 -37.164 -29.665  0.00  0.00    +0.027 A 
ATOM      6  C   UNL A   1      36.776 -36.280 -29.713  0.00  0.00    -0.048 A 
ENDROOT
BRANCH   1   8
ATOM      7  C   UNL A   1      34.547 -34.488 -29.448  0.00  0.00    -0.061 C 
ATOM      8  C   UNL A   1      35.517 -34.311 -30.609  0.00  0.00    -0.031 C 
ENDBRANCH   1   8
BRANCH   5   9
ATOM      9  C   UNL A   1      37.846 -38.259 -28.647  0.00  0.00    +0.265 C 
ATOM     10  O   UNL A   1      38.535 -38.135 -27.632  0.00  0.00    -0.283 OA
BRANCH   9  11
ATOM     11  C   UNL A   1      36.970 -39.471 -28.917  0.00  0.00    +0.455 C 
ATOM     12  F   UNL A   1      37.632 -40.645 -28.715  0.00  0.00    -0.163 F 
ATOM     13  F   UNL A   1      35.874 -39.512 -28.106  0.00  0.00    -0.163 F 
ATOM     14  F   UNL A   1      36.495 -39.519 -30.192  0.00  0.00    -0.163 F 
ENDBRANCH   9  11
ENDBRANCH   5   9
TORSDOF 3
ENDMDL
MODEL 20
REMARK VINA RESULT:    -5.857     11.773     13.490
REMARK INTER + INTRA:          -6.901
REMARK INTER:                  -6.448
REMARK INTRA:                  -0.452
REMARK UNBOUND:                -0.017
REMARK  Name = cpd166.pdb
REMARK  4 active torsions:
REMARK  status: ('A' for Active; 'I' for Inactive)
REMARK    1  A    between atoms: C_1  and  C_2
REMARK    2  A    between atoms: C_2  and  C_3
REMARK    3  A    between atoms: C_7  and  C_8
REMARK    4  A    between atoms: C_8  and  C_10
REMARK                            x       y       z     vdW  Elec       q    Type
REMARK                         _______ _______ _______ _____ _____    ______ ____
ROOT
ATOM      1  C   UNL A   1      37.836 -36.705 -29.967  0.00  0.00    -0.047 A 
ATOM      2  C   UNL A   1      37.449 -37.215 -28.723  0.00  0.00    -0.059 A 
ATOM      3  C   UNL A   1      36.174 -36.960 -28.214  0.00  0.00    -0.061 A 
ATOM      4  C   UNL A   1      35.263 -36.187 -28.936  0.00  0.00    -0.051 A 
ATOM      5  C   UNL A   1      35.624 -35.661 -30.180  0.00  0.00    +0.027 A 
ATOM      6  C   UNL A   1      36.907 -35.929 -30.685  0.00  0.00    -0.048 A 
ENDROOT
BRANCH   1   8
ATOM      7  C   UNL A   1      39.600 -36.014 -31.729  0.00  0.00    -0.061 C 
ATOM      8  C   UNL A   1      39.198 -36.934 -30.583  0.00  0.00    -0.031 C 
ENDBRANCH   1   8
BRANCH   5   9
ATOM      9  C   UNL A   1      34.701 -34.822 -31.004  0.00  0.00    +0.265 C 
ATOM     10  O   UNL A   1      34.177 -35.324 -32.001  0.00  0.00    -0.283 OA
BRANCH   9  11
ATOM     11  C   UNL A   1      34.453 -33.388 -30.565  0.00  0.00    +0.455 C 
ATOM     12  F   UNL A   1      35.591 -32.773 -30.134  0.00  0.00    -0.163 F 
ATOM     13  F   UNL A   1      33.965 -32.612 -31.574  0.00  0.00    -0.163 F 
ATOM     14  F   UNL A   1      33.558 -33.285 -29.545  0.00  0.00    -0.163 F 
ENDBRANCH   9  11
ENDBRANCH   5   9
TORSDOF 3
ENDMDL
