MODEL 1
REMARK VINA RESULT:    -4.256      0.000      0.000
REMARK INTER + INTRA:          -3.160
REMARK INTER:                  -4.754
REMARK INTRA:                   1.593
REMARK UNBOUND:                 1.593
REMARK  Name = cpd242.pdb
REMARK  7 active torsions:
REMARK  status: ('A' for Active; 'I' for Inactive)
REMARK    1  A    between atoms: C_1  and  N_2
REMARK    2  A    between atoms: N_2  and  C_3
REMARK    3  A    between atoms: N_2  and  C_4
REMARK    4  A    between atoms: N_2  and  C_5
REMARK    5  A    between atoms: C_5  and  C_6
REMARK    6  A    between atoms: C_6  and  C_7
REMARK    7  A    between atoms: C_7  and  C_8
REMARK                            x       y       z     vdW  Elec       q    Type
REMARK                         _______ _______ _______ _____ _____    ______ ____
ROOT
ATOM      1  C   UNL     1      41.361 -36.984 -31.607  0.00  0.00    -0.089 C 
ENDROOT
BRANCH   1   3
ATOM      2  C   UNL     1      42.328 -37.994 -31.395  0.00  0.00    -0.101 C 
ATOM      3  N   UNL     1      42.347 -36.995 -31.443  0.00  0.00    +0.374 N 
ATOM      4  C   UNL     1      43.334 -37.007 -31.279  0.00  0.00    -0.101 C 
ATOM      5  C   UNL     1      42.366 -35.997 -31.490  0.00  0.00    -0.101 C 
ENDBRANCH   1   3
BRANCH   1   6
ATOM      6  C   UNL     1      39.858 -36.998 -30.665  0.00  0.00    -0.067 C 
BRANCH   6   7
ATOM      7  C   UNL     1      38.745 -36.238 -31.413  0.00  0.00    -0.045 C 
BRANCH   7   8
ATOM      8  C   UNL     1      37.453 -36.216 -30.611  0.00  0.00    +0.003 C 
ATOM      9 BR   UNL     1      37.651 -37.347 -29.043  0.00  0.00    -0.092 Br
ENDBRANCH   7   8
ENDBRANCH   6   7
ENDBRANCH   1   6
TORSDOF 4
ENDMDL
MODEL 2
REMARK VINA RESULT:    -4.128     18.930     19.784
REMARK INTER + INTRA:          -3.017
REMARK INTER:                  -4.594
REMARK INTRA:                   1.577
REMARK UNBOUND:                 1.593
REMARK  Name = cpd242.pdb
REMARK  7 active torsions:
REMARK  status: ('A' for Active; 'I' for Inactive)
REMARK    1  A    between atoms: C_1  and  N_2
REMARK    2  A    between atoms: N_2  and  C_3
REMARK    3  A    between atoms: N_2  and  C_4
REMARK    4  A    between atoms: N_2  and  C_5
REMARK    5  A    between atoms: C_5  and  C_6
REMARK    6  A    between atoms: C_6  and  C_7
REMARK    7  A    between atoms: C_7  and  C_8
REMARK                            x       y       z     vdW  Elec       q    Type
REMARK                         _______ _______ _______ _____ _____    ______ ____
ROOT
ATOM      1  C   UNL     1      46.634 -21.952 -41.431  0.00  0.00    -0.089 C 
ENDROOT
BRANCH   1   3
ATOM      2  C   UNL     1      47.900 -21.415 -41.762  0.00  0.00    -0.101 C 
ATOM      3  N   UNL     1      47.582 -22.245 -41.303  0.00  0.00    +0.374 N 
ATOM      4  C   UNL     1      48.529 -22.537 -41.174  0.00  0.00    -0.101 C 
ATOM      5  C   UNL     1      47.264 -23.074 -40.843  0.00  0.00    -0.101 C 
ENDBRANCH   1   3
BRANCH   1   6
ATOM      6  C   UNL     1      45.358 -22.083 -42.656  0.00  0.00    -0.067 C 
BRANCH   6   7
ATOM      7  C   UNL     1      44.168 -21.173 -42.295  0.00  0.00    -0.045 C 
BRANCH   7   8
ATOM      8  C   UNL     1      44.262 -19.831 -43.004  0.00  0.00    +0.003 C 
ATOM      9 BR   UNL     1      44.449 -18.419 -41.681  0.00  0.00    -0.092 Br
ENDBRANCH   7   8
ENDBRANCH   6   7
ENDBRANCH   1   6
TORSDOF 4
ENDMDL
MODEL 3
REMARK VINA RESULT:    -4.128     33.410     34.311
REMARK INTER + INTRA:          -3.017
REMARK INTER:                  -4.691
REMARK INTRA:                   1.674
REMARK UNBOUND:                 1.593
REMARK  Name = cpd242.pdb
REMARK  7 active torsions:
REMARK  status: ('A' for Active; 'I' for Inactive)
REMARK    1  A    between atoms: C_1  and  N_2
REMARK    2  A    between atoms: N_2  and  C_3
REMARK    3  A    between atoms: N_2  and  C_4
REMARK    4  A    between atoms: N_2  and  C_5
REMARK    5  A    between atoms: C_5  and  C_6
REMARK    6  A    between atoms: C_6  and  C_7
REMARK    7  A    between atoms: C_7  and  C_8
REMARK                            x       y       z     vdW  Elec       q    Type
REMARK                         _______ _______ _______ _____ _____    ______ ____
ROOT
ATOM      1  C   UNL     1      62.274 -24.414  -8.525  0.00  0.00    -0.089 C 
ENDROOT
BRANCH   1   3
ATOM      2  C   UNL     1      62.641 -24.688  -9.863  0.00  0.00    -0.101 C 
ATOM      3  N   UNL     1      62.943 -24.038  -9.165  0.00  0.00    +0.374 N 
ATOM      4  C   UNL     1      63.612 -23.661  -9.806  0.00  0.00    -0.101 C 
ATOM      5  C   UNL     1      63.245 -23.388  -8.468  0.00  0.00    -0.101 C 
ENDBRANCH   1   3
BRANCH   1   6
ATOM      6  C   UNL     1      62.250 -25.173  -6.922  0.00  0.00    -0.067 C 
BRANCH   6   7
ATOM      7  C   UNL     1      62.219 -26.708  -7.051  0.00  0.00    -0.045 C 
BRANCH   7   8
ATOM      8  C   UNL     1      63.351 -27.354  -6.268  0.00  0.00    +0.003 C 
ATOM      9 BR   UNL     1      65.018 -26.446  -6.681  0.00  0.00    -0.092 Br
ENDBRANCH   7   8
ENDBRANCH   6   7
ENDBRANCH   1   6
TORSDOF 4
ENDMDL
MODEL 4
REMARK VINA RESULT:    -4.109      2.541      4.350
REMARK INTER + INTRA:          -2.996
REMARK INTER:                  -4.760
REMARK INTRA:                   1.763
REMARK UNBOUND:                 1.593
REMARK  Name = cpd242.pdb
REMARK  7 active torsions:
REMARK  status: ('A' for Active; 'I' for Inactive)
REMARK    1  A    between atoms: C_1  and  N_2
REMARK    2  A    between atoms: N_2  and  C_3
REMARK    3  A    between atoms: N_2  and  C_4
REMARK    4  A    between atoms: N_2  and  C_5
REMARK    5  A    between atoms: C_5  and  C_6
REMARK    6  A    between atoms: C_6  and  C_7
REMARK    7  A    between atoms: C_7  and  C_8
REMARK                            x       y       z     vdW  Elec       q    Type
REMARK                         _______ _______ _______ _____ _____    ______ ____
ROOT
ATOM      1  C   UNL     1      39.457 -36.196 -31.801  0.00  0.00    -0.089 C 
ENDROOT
BRANCH   1   3
ATOM      2  C   UNL     1      38.273 -36.770 -31.282  0.00  0.00    -0.101 C 
ATOM      3  N   UNL     1      38.536 -35.861 -31.604  0.00  0.00    +0.374 N 
ATOM      4  C   UNL     1      37.615 -35.525 -31.407  0.00  0.00    -0.101 C 
ATOM      5  C   UNL     1      38.798 -34.951 -31.926  0.00  0.00    -0.101 C 
ENDBRANCH   1   3
BRANCH   1   6
ATOM      6  C   UNL     1      40.699 -37.198 -31.028  0.00  0.00    -0.067 C 
BRANCH   6   7
ATOM      7  C   UNL     1      41.926 -37.343 -31.948  0.00  0.00    -0.045 C 
BRANCH   7   8
ATOM      8  C   UNL     1      43.211 -37.465 -31.144  0.00  0.00    +0.003 C 
ATOM      9 BR   UNL     1      43.228 -39.171 -30.214  0.00  0.00    -0.092 Br
ENDBRANCH   7   8
ENDBRANCH   6   7
ENDBRANCH   1   6
TORSDOF 4
ENDMDL
MODEL 5
REMARK VINA RESULT:    -4.109      2.779      4.220
REMARK INTER + INTRA:          -2.996
REMARK INTER:                  -4.630
REMARK INTRA:                   1.635
REMARK UNBOUND:                 1.593
REMARK  Name = cpd242.pdb
REMARK  7 active torsions:
REMARK  status: ('A' for Active; 'I' for Inactive)
REMARK    1  A    between atoms: C_1  and  N_2
REMARK    2  A    between atoms: N_2  and  C_3
REMARK    3  A    between atoms: N_2  and  C_4
REMARK    4  A    between atoms: N_2  and  C_5
REMARK    5  A    between atoms: C_5  and  C_6
REMARK    6  A    between atoms: C_6  and  C_7
REMARK    7  A    between atoms: C_7  and  C_8
REMARK                            x       y       z     vdW  Elec       q    Type
REMARK                         _______ _______ _______ _____ _____    ______ ____
ROOT
ATOM      1  C   UNL     1      41.326 -36.351 -31.761  0.00  0.00    -0.089 C 
ENDROOT
BRANCH   1   3
ATOM      2  C   UNL     1      40.181 -36.360 -30.930  0.00  0.00    -0.101 C 
ATOM      3  N   UNL     1      40.366 -36.096 -31.877  0.00  0.00    +0.374 N 
ATOM      4  C   UNL     1      39.406 -35.841 -31.993  0.00  0.00    -0.101 C 
ATOM      5  C   UNL     1      40.550 -35.832 -32.824  0.00  0.00    -0.101 C 
ENDBRANCH   1   3
BRANCH   1   6
ATOM      6  C   UNL     1      42.361 -37.770 -32.003  0.00  0.00    -0.067 C 
BRANCH   6   7
ATOM      7  C   UNL     1      43.271 -37.991 -30.779  0.00  0.00    -0.045 C 
BRANCH   7   8
ATOM      8  C   UNL     1      42.858 -39.229 -29.998  0.00  0.00    +0.003 C 
ATOM      9 BR   UNL     1      44.444 -40.098 -29.287  0.00  0.00    -0.092 Br
ENDBRANCH   7   8
ENDBRANCH   6   7
ENDBRANCH   1   6
TORSDOF 4
ENDMDL
MODEL 6
REMARK VINA RESULT:    -4.054     33.393     34.447
REMARK INTER + INTRA:          -2.935
REMARK INTER:                  -4.468
REMARK INTRA:                   1.534
REMARK UNBOUND:                 1.593
REMARK  Name = cpd242.pdb
REMARK  7 active torsions:
REMARK  status: ('A' for Active; 'I' for Inactive)
REMARK    1  A    between atoms: C_1  and  N_2
REMARK    2  A    between atoms: N_2  and  C_3
REMARK    3  A    between atoms: N_2  and  C_4
REMARK    4  A    between atoms: N_2  and  C_5
REMARK    5  A    between atoms: C_5  and  C_6
REMARK    6  A    between atoms: C_6  and  C_7
REMARK    7  A    between atoms: C_7  and  C_8
REMARK                            x       y       z     vdW  Elec       q    Type
REMARK                         _______ _______ _______ _____ _____    ______ ____
ROOT
ATOM      1  C   UNL     1      63.177 -25.966  -7.641  0.00  0.00    -0.089 C 
ENDROOT
BRANCH   1   3
ATOM      2  C   UNL     1      64.091 -25.800  -6.575  0.00  0.00    -0.101 C 
ATOM      3  N   UNL     1      63.269 -26.349  -6.722  0.00  0.00    +0.374 N 
ATOM      4  C   UNL     1      63.360 -26.732  -5.803  0.00  0.00    -0.101 C 
ATOM      5  C   UNL     1      62.446 -26.898  -6.869  0.00  0.00    -0.101 C 
ENDBRANCH   1   3
BRANCH   1   6
ATOM      6  C   UNL     1      62.182 -24.767  -8.488  0.00  0.00    -0.067 C 
BRANCH   6   7
ATOM      7  C   UNL     1      62.619 -24.643  -9.960  0.00  0.00    -0.045 C 
BRANCH   7   8
ATOM      8  C   UNL     1      63.164 -23.256 -10.262  0.00  0.00    +0.003 C 
ATOM      9 BR   UNL     1      63.492 -22.317  -8.593  0.00  0.00    -0.092 Br
ENDBRANCH   7   8
ENDBRANCH   6   7
ENDBRANCH   1   6
TORSDOF 4
ENDMDL
MODEL 7
REMARK VINA RESULT:    -4.021     33.981     34.969
REMARK INTER + INTRA:          -2.898
REMARK INTER:                  -4.409
REMARK INTRA:                   1.511
REMARK UNBOUND:                 1.593
REMARK  Name = cpd242.pdb
REMARK  7 active torsions:
REMARK  status: ('A' for Active; 'I' for Inactive)
REMARK    1  A    between atoms: C_1  and  N_2
REMARK    2  A    between atoms: N_2  and  C_3
REMARK    3  A    between atoms: N_2  and  C_4
REMARK    4  A    between atoms: N_2  and  C_5
REMARK    5  A    between atoms: C_5  and  C_6
REMARK    6  A    between atoms: C_6  and  C_7
REMARK    7  A    between atoms: C_7  and  C_8
REMARK                            x       y       z     vdW  Elec       q    Type
REMARK                         _______ _______ _______ _____ _____    ______ ____
ROOT
ATOM      1  C   UNL     1      62.968 -25.280  -6.614  0.00  0.00    -0.089 C 
ENDROOT
BRANCH   1   3
ATOM      2  C   UNL     1      63.483 -26.320  -5.806  0.00  0.00    -0.101 C 
ATOM      3  N   UNL     1      62.849 -26.272  -6.578  0.00  0.00    +0.374 N 
ATOM      4  C   UNL     1      62.729 -27.264  -6.541  0.00  0.00    -0.101 C 
ATOM      5  C   UNL     1      62.214 -26.224  -7.349  0.00  0.00    -0.101 C 
ENDBRANCH   1   3
BRANCH   1   6
ATOM      6  C   UNL     1      64.050 -24.099  -7.376  0.00  0.00    -0.067 C 
BRANCH   6   7
ATOM      7  C   UNL     1      63.384 -22.711  -7.430  0.00  0.00    -0.045 C 
BRANCH   7   8
ATOM      8  C   UNL     1      63.387 -22.149  -8.843  0.00  0.00    +0.003 C 
ATOM      9 BR   UNL     1      63.701 -23.591 -10.108  0.00  0.00    -0.092 Br
ENDBRANCH   7   8
ENDBRANCH   6   7
ENDBRANCH   1   6
TORSDOF 4
ENDMDL
MODEL 8
REMARK VINA RESULT:    -4.018      1.140      1.422
REMARK INTER + INTRA:          -2.895
REMARK INTER:                  -4.493
REMARK INTRA:                   1.598
REMARK UNBOUND:                 1.593
REMARK  Name = cpd242.pdb
REMARK  7 active torsions:
REMARK  status: ('A' for Active; 'I' for Inactive)
REMARK    1  A    between atoms: C_1  and  N_2
REMARK    2  A    between atoms: N_2  and  C_3
REMARK    3  A    between atoms: N_2  and  C_4
REMARK    4  A    between atoms: N_2  and  C_5
REMARK    5  A    between atoms: C_5  and  C_6
REMARK    6  A    between atoms: C_6  and  C_7
REMARK    7  A    between atoms: C_7  and  C_8
REMARK                            x       y       z     vdW  Elec       q    Type
REMARK                         _______ _______ _______ _____ _____    ______ ____
ROOT
ATOM      1  C   UNL     1      41.224 -36.932 -31.256  0.00  0.00    -0.089 C 
ENDROOT
BRANCH   1   3
ATOM      2  C   UNL     1      42.219 -36.058 -30.759  0.00  0.00    -0.101 C 
ATOM      3  N   UNL     1      42.220 -36.878 -31.331  0.00  0.00    +0.374 N 
ATOM      4  C   UNL     1      43.216 -36.824 -31.406  0.00  0.00    -0.101 C 
ATOM      5  C   UNL     1      42.221 -37.698 -31.904  0.00  0.00    -0.101 C 
ENDBRANCH   1   3
BRANCH   1   6
ATOM      6  C   UNL     1      39.796 -36.145 -31.953  0.00  0.00    -0.067 C 
BRANCH   6   7
ATOM      7  C   UNL     1      38.561 -36.381 -31.063  0.00  0.00    -0.045 C 
BRANCH   7   8
ATOM      8  C   UNL     1      37.539 -35.266 -31.226  0.00  0.00    +0.003 C 
ATOM      9 BR   UNL     1      35.977 -35.663 -30.139  0.00  0.00    -0.092 Br
ENDBRANCH   7   8
ENDBRANCH   6   7
ENDBRANCH   1   6
TORSDOF 4
ENDMDL
MODEL 9
REMARK VINA RESULT:    -3.947     19.219     20.057
REMARK INTER + INTRA:          -2.815
REMARK INTER:                  -4.323
REMARK INTRA:                   1.508
REMARK UNBOUND:                 1.593
REMARK  Name = cpd242.pdb
REMARK  7 active torsions:
REMARK  status: ('A' for Active; 'I' for Inactive)
REMARK    1  A    between atoms: C_1  and  N_2
REMARK    2  A    between atoms: N_2  and  C_3
REMARK    3  A    between atoms: N_2  and  C_4
REMARK    4  A    between atoms: N_2  and  C_5
REMARK    5  A    between atoms: C_5  and  C_6
REMARK    6  A    between atoms: C_6  and  C_7
REMARK    7  A    between atoms: C_7  and  C_8
REMARK                            x       y       z     vdW  Elec       q    Type
REMARK                         _______ _______ _______ _____ _____    ______ ____
ROOT
ATOM      1  C   UNL     1      47.237 -21.723 -41.277  0.00  0.00    -0.089 C 
ENDROOT
BRANCH   1   3
ATOM      2  C   UNL     1      46.890 -22.852 -42.055  0.00  0.00    -0.101 C 
ATOM      3  N   UNL     1      47.705 -22.563 -41.552  0.00  0.00    +0.374 N 
ATOM      4  C   UNL     1      48.173 -23.403 -41.828  0.00  0.00    -0.101 C 
ATOM      5  C   UNL     1      48.520 -22.274 -41.050  0.00  0.00    -0.101 C 
ENDBRANCH   1   3
BRANCH   1   6
ATOM      6  C   UNL     1      47.021 -20.067 -41.872  0.00  0.00    -0.067 C 
BRANCH   6   7
ATOM      7  C   UNL     1      46.196 -19.235 -40.871  0.00  0.00    -0.045 C 
BRANCH   7   8
ATOM      8  C   UNL     1      44.938 -18.677 -41.518  0.00  0.00    +0.003 C 
ATOM      9 BR   UNL     1      44.304 -19.921 -42.869  0.00  0.00    -0.092 Br
ENDBRANCH   7   8
ENDBRANCH   6   7
ENDBRANCH   1   6
TORSDOF 4
ENDMDL
MODEL 10
REMARK VINA RESULT:    -3.935     18.227     19.006
REMARK INTER + INTRA:          -2.802
REMARK INTER:                  -4.340
REMARK INTRA:                   1.538
REMARK UNBOUND:                 1.593
REMARK  Name = cpd242.pdb
REMARK  7 active torsions:
REMARK  status: ('A' for Active; 'I' for Inactive)
REMARK    1  A    between atoms: C_1  and  N_2
REMARK    2  A    between atoms: N_2  and  C_3
REMARK    3  A    between atoms: N_2  and  C_4
REMARK    4  A    between atoms: N_2  and  C_5
REMARK    5  A    between atoms: C_5  and  C_6
REMARK    6  A    between atoms: C_6  and  C_7
REMARK    7  A    between atoms: C_7  and  C_8
REMARK                            x       y       z     vdW  Elec       q    Type
REMARK                         _______ _______ _______ _____ _____    ______ ____
ROOT
ATOM      1  C   UNL     1      46.669 -21.986 -41.688  0.00  0.00    -0.089 C 
ENDROOT
BRANCH   1   3
ATOM      2  C   UNL     1      48.049 -21.955 -41.997  0.00  0.00    -0.101 C 
ATOM      3  N   UNL     1      47.455 -22.564 -41.471  0.00  0.00    +0.374 N 
ATOM      4  C   UNL     1      48.242 -23.143 -41.254  0.00  0.00    -0.101 C 
ATOM      5  C   UNL     1      46.862 -23.174 -40.945  0.00  0.00    -0.101 C 
ENDBRANCH   1   3
BRANCH   1   6
ATOM      6  C   UNL     1      45.252 -22.016 -42.753  0.00  0.00    -0.067 C 
BRANCH   6   7
ATOM      7  C   UNL     1      44.298 -20.853 -42.417  0.00  0.00    -0.045 C 
BRANCH   7   8
ATOM      8  C   UNL     1      43.050 -21.347 -41.702  0.00  0.00    +0.003 C 
ATOM      9 BR   UNL     1      43.345 -21.291 -39.782  0.00  0.00    -0.092 Br
ENDBRANCH   7   8
ENDBRANCH   6   7
ENDBRANCH   1   6
TORSDOF 4
ENDMDL
MODEL 11
REMARK VINA RESULT:    -3.814      1.249      1.460
REMARK INTER + INTRA:          -2.667
REMARK INTER:                  -4.228
REMARK INTRA:                   1.561
REMARK UNBOUND:                 1.593
REMARK  Name = cpd242.pdb
REMARK  7 active torsions:
REMARK  status: ('A' for Active; 'I' for Inactive)
REMARK    1  A    between atoms: C_1  and  N_2
REMARK    2  A    between atoms: N_2  and  C_3
REMARK    3  A    between atoms: N_2  and  C_4
REMARK    4  A    between atoms: N_2  and  C_5
REMARK    5  A    between atoms: C_5  and  C_6
REMARK    6  A    between atoms: C_6  and  C_7
REMARK    7  A    between atoms: C_7  and  C_8
REMARK                            x       y       z     vdW  Elec       q    Type
REMARK                         _______ _______ _______ _____ _____    ______ ____
ROOT
ATOM      1  C   UNL     1      40.466 -36.238 -31.276  0.00  0.00    -0.089 C 
ENDROOT
BRANCH   1   3
ATOM      2  C   UNL     1      41.080 -36.617 -32.492  0.00  0.00    -0.101 C 
ATOM      3  N   UNL     1      41.401 -36.449 -31.560  0.00  0.00    +0.374 N 
ATOM      4  C   UNL     1      42.337 -36.660 -31.844  0.00  0.00    -0.101 C 
ATOM      5  C   UNL     1      41.722 -36.281 -30.628  0.00  0.00    -0.101 C 
ENDBRANCH   1   3
BRANCH   1   6
ATOM      6  C   UNL     1      39.088 -37.064 -30.526  0.00  0.00    -0.067 C 
BRANCH   6   7
ATOM      7  C   UNL     1      37.825 -36.184 -30.599  0.00  0.00    -0.045 C 
BRANCH   7   8
ATOM      8  C   UNL     1      36.563 -37.006 -30.390  0.00  0.00    +0.003 C 
ATOM      9 BR   UNL     1      35.555 -36.269 -28.900  0.00  0.00    -0.092 Br
ENDBRANCH   7   8
ENDBRANCH   6   7
ENDBRANCH   1   6
TORSDOF 4
ENDMDL
MODEL 12
REMARK VINA RESULT:    -3.719      2.496      3.474
REMARK INTER + INTRA:          -2.560
REMARK INTER:                  -4.145
REMARK INTRA:                   1.585
REMARK UNBOUND:                 1.593
REMARK  Name = cpd242.pdb
REMARK  7 active torsions:
REMARK  status: ('A' for Active; 'I' for Inactive)
REMARK    1  A    between atoms: C_1  and  N_2
REMARK    2  A    between atoms: N_2  and  C_3
REMARK    3  A    between atoms: N_2  and  C_4
REMARK    4  A    between atoms: N_2  and  C_5
REMARK    5  A    between atoms: C_5  and  C_6
REMARK    6  A    between atoms: C_6  and  C_7
REMARK    7  A    between atoms: C_7  and  C_8
REMARK                            x       y       z     vdW  Elec       q    Type
REMARK                         _______ _______ _______ _____ _____    ______ ____
ROOT
ATOM      1  C   UNL     1      38.638 -36.937 -30.752  0.00  0.00    -0.089 C 
ENDROOT
BRANCH   1   3
ATOM      2  C   UNL     1      39.990 -36.616 -31.019  0.00  0.00    -0.101 C 
ATOM      3  N   UNL     1      39.106 -36.236 -31.290  0.00  0.00    +0.374 N 
ATOM      4  C   UNL     1      39.573 -35.535 -31.829  0.00  0.00    -0.101 C 
ATOM      5  C   UNL     1      38.222 -35.855 -31.562  0.00  0.00    -0.101 C 
ENDBRANCH   1   3
BRANCH   1   6
ATOM      6  C   UNL     1      37.806 -37.078 -29.193  0.00  0.00    -0.067 C 
BRANCH   6   7
ATOM      7  C   UNL     1      37.815 -38.540 -28.705  0.00  0.00    -0.045 C 
BRANCH   7   8
ATOM      8  C   UNL     1      36.423 -39.150 -28.754  0.00  0.00    +0.003 C 
ATOM      9 BR   UNL     1      36.572 -41.075 -28.973  0.00  0.00    -0.092 Br
ENDBRANCH   7   8
ENDBRANCH   6   7
ENDBRANCH   1   6
TORSDOF 4
ENDMDL
MODEL 13
REMARK VINA RESULT:    -3.660     20.911     22.348
REMARK INTER + INTRA:          -2.494
REMARK INTER:                  -4.014
REMARK INTRA:                   1.520
REMARK UNBOUND:                 1.593
REMARK  Name = cpd242.pdb
REMARK  7 active torsions:
REMARK  status: ('A' for Active; 'I' for Inactive)
REMARK    1  A    between atoms: C_1  and  N_2
REMARK    2  A    between atoms: N_2  and  C_3
REMARK    3  A    between atoms: N_2  and  C_4
REMARK    4  A    between atoms: N_2  and  C_5
REMARK    5  A    between atoms: C_5  and  C_6
REMARK    6  A    between atoms: C_6  and  C_7
REMARK    7  A    between atoms: C_7  and  C_8
REMARK                            x       y       z     vdW  Elec       q    Type
REMARK                         _______ _______ _______ _____ _____    ______ ____
ROOT
ATOM      1  C   UNL     1      55.229 -35.841 -46.638  0.00  0.00    -0.089 C 
ENDROOT
BRANCH   1   3
ATOM      2  C   UNL     1      53.837 -35.863 -46.892  0.00  0.00    -0.101 C 
ATOM      3  N   UNL     1      54.432 -35.377 -46.251  0.00  0.00    +0.374 N 
ATOM      4  C   UNL     1      53.635 -34.914 -45.864  0.00  0.00    -0.101 C 
ATOM      5  C   UNL     1      55.026 -34.891 -45.610  0.00  0.00    -0.101 C 
ENDBRANCH   1   3
BRANCH   1   6
ATOM      6  C   UNL     1      56.406 -35.593 -47.941  0.00  0.00    -0.067 C 
BRANCH   6   7
ATOM      7  C   UNL     1      57.056 -36.931 -48.344  0.00  0.00    -0.045 C 
BRANCH   7   8
ATOM      8  C   UNL     1      56.507 -37.438 -49.669  0.00  0.00    +0.003 C 
ATOM      9 BR   UNL     1      55.196 -38.831 -49.330  0.00  0.00    -0.092 Br
ENDBRANCH   7   8
ENDBRANCH   6   7
ENDBRANCH   1   6
TORSDOF 4
ENDMDL
MODEL 14
REMARK VINA RESULT:    -3.614     34.638     35.815
REMARK INTER + INTRA:          -2.443
REMARK INTER:                  -3.953
REMARK INTRA:                   1.510
REMARK UNBOUND:                 1.593
REMARK  Name = cpd242.pdb
REMARK  7 active torsions:
REMARK  status: ('A' for Active; 'I' for Inactive)
REMARK    1  A    between atoms: C_1  and  N_2
REMARK    2  A    between atoms: N_2  and  C_3
REMARK    3  A    between atoms: N_2  and  C_4
REMARK    4  A    between atoms: N_2  and  C_5
REMARK    5  A    between atoms: C_5  and  C_6
REMARK    6  A    between atoms: C_6  and  C_7
REMARK    7  A    between atoms: C_7  and  C_8
REMARK                            x       y       z     vdW  Elec       q    Type
REMARK                         _______ _______ _______ _____ _____    ______ ____
ROOT
ATOM      1  C   UNL     1      63.203 -25.499  -6.935  0.00  0.00    -0.089 C 
ENDROOT
BRANCH   1   3
ATOM      2  C   UNL     1      63.333 -26.781  -6.351  0.00  0.00    -0.101 C 
ATOM      3  N   UNL     1      62.700 -26.361  -7.002  0.00  0.00    +0.374 N 
ATOM      4  C   UNL     1      62.198 -27.223  -7.069  0.00  0.00    -0.101 C 
ATOM      5  C   UNL     1      62.068 -25.942  -7.653  0.00  0.00    -0.101 C 
ENDBRANCH   1   3
BRANCH   1   6
ATOM      6  C   UNL     1      63.157 -24.006  -5.980  0.00  0.00    -0.067 C 
BRANCH   6   7
ATOM      7  C   UNL     1      64.212 -23.005  -6.489  0.00  0.00    -0.045 C 
BRANCH   7   8
ATOM      8  C   UNL     1      65.288 -22.754  -5.444  0.00  0.00    +0.003 C 
ATOM      9 BR   UNL     1      65.064 -24.008  -3.977  0.00  0.00    -0.092 Br
ENDBRANCH   7   8
ENDBRANCH   6   7
ENDBRANCH   1   6
TORSDOF 4
ENDMDL
MODEL 15
REMARK VINA RESULT:    -3.565     21.026     22.442
REMARK INTER + INTRA:          -2.388
REMARK INTER:                  -3.960
REMARK INTRA:                   1.572
REMARK UNBOUND:                 1.593
REMARK  Name = cpd242.pdb
REMARK  7 active torsions:
REMARK  status: ('A' for Active; 'I' for Inactive)
REMARK    1  A    between atoms: C_1  and  N_2
REMARK    2  A    between atoms: N_2  and  C_3
REMARK    3  A    between atoms: N_2  and  C_4
REMARK    4  A    between atoms: N_2  and  C_5
REMARK    5  A    between atoms: C_5  and  C_6
REMARK    6  A    between atoms: C_6  and  C_7
REMARK    7  A    between atoms: C_7  and  C_8
REMARK                            x       y       z     vdW  Elec       q    Type
REMARK                         _______ _______ _______ _____ _____    ______ ____
ROOT
ATOM      1  C   UNL     1      55.062 -35.775 -46.600  0.00  0.00    -0.089 C 
ENDROOT
BRANCH   1   3
ATOM      2  C   UNL     1      54.941 -34.932 -45.472  0.00  0.00    -0.101 C 
ATOM      3  N   UNL     1      54.300 -35.338 -46.122  0.00  0.00    +0.374 N 
ATOM      4  C   UNL     1      53.538 -34.901 -45.644  0.00  0.00    -0.101 C 
ATOM      5  C   UNL     1      53.658 -35.745 -46.773  0.00  0.00    -0.101 C 
ENDBRANCH   1   3
BRANCH   1   6
ATOM      6  C   UNL     1      56.345 -35.330 -47.740  0.00  0.00    -0.067 C 
BRANCH   6   7
ATOM      7  C   UNL     1      56.571 -36.457 -48.767  0.00  0.00    -0.045 C 
BRANCH   7   8
ATOM      8  C   UNL     1      56.514 -35.928 -50.192  0.00  0.00    +0.003 C 
ATOM      9 BR   UNL     1      55.703 -34.162 -50.191  0.00  0.00    -0.092 Br
ENDBRANCH   7   8
ENDBRANCH   6   7
ENDBRANCH   1   6
TORSDOF 4
ENDMDL
MODEL 16
REMARK VINA RESULT:    -3.432     34.843     36.037
REMARK INTER + INTRA:          -2.240
REMARK INTER:                  -3.782
REMARK INTRA:                   1.542
REMARK UNBOUND:                 1.593
REMARK  Name = cpd242.pdb
REMARK  7 active torsions:
REMARK  status: ('A' for Active; 'I' for Inactive)
REMARK    1  A    between atoms: C_1  and  N_2
REMARK    2  A    between atoms: N_2  and  C_3
REMARK    3  A    between atoms: N_2  and  C_4
REMARK    4  A    between atoms: N_2  and  C_5
REMARK    5  A    between atoms: C_5  and  C_6
REMARK    6  A    between atoms: C_6  and  C_7
REMARK    7  A    between atoms: C_7  and  C_8
REMARK                            x       y       z     vdW  Elec       q    Type
REMARK                         _______ _______ _______ _____ _____    ______ ____
ROOT
ATOM      1  C   UNL     1      63.022 -24.857  -6.837  0.00  0.00    -0.089 C 
ENDROOT
BRANCH   1   3
ATOM      2  C   UNL     1      63.179 -24.048  -7.987  0.00  0.00    -0.101 C 
ATOM      3  N   UNL     1      62.702 -24.903  -7.784  0.00  0.00    +0.374 N 
ATOM      4  C   UNL     1      62.382 -24.950  -8.730  0.00  0.00    -0.101 C 
ATOM      5  C   UNL     1      62.225 -25.759  -7.580  0.00  0.00    -0.101 C 
ENDBRANCH   1   3
BRANCH   1   6
ATOM      6  C   UNL     1      64.466 -25.284  -5.901  0.00  0.00    -0.067 C 
BRANCH   6   7
ATOM      7  C   UNL     1      64.253 -24.974  -4.407  0.00  0.00    -0.045 C 
BRANCH   7   8
ATOM      8  C   UNL     1      65.183 -23.869  -3.931  0.00  0.00    +0.003 C 
ATOM      9 BR   UNL     1      64.148 -22.258  -3.597  0.00  0.00    -0.092 Br
ENDBRANCH   7   8
ENDBRANCH   6   7
ENDBRANCH   1   6
TORSDOF 4
ENDMDL
MODEL 17
REMARK VINA RESULT:    -3.365     17.847     18.606
REMARK INTER + INTRA:          -2.166
REMARK INTER:                  -3.734
REMARK INTRA:                   1.568
REMARK UNBOUND:                 1.593
REMARK  Name = cpd242.pdb
REMARK  7 active torsions:
REMARK  status: ('A' for Active; 'I' for Inactive)
REMARK    1  A    between atoms: C_1  and  N_2
REMARK    2  A    between atoms: N_2  and  C_3
REMARK    3  A    between atoms: N_2  and  C_4
REMARK    4  A    between atoms: N_2  and  C_5
REMARK    5  A    between atoms: C_5  and  C_6
REMARK    6  A    between atoms: C_6  and  C_7
REMARK    7  A    between atoms: C_7  and  C_8
REMARK                            x       y       z     vdW  Elec       q    Type
REMARK                         _______ _______ _______ _____ _____    ______ ____
ROOT
ATOM      1  C   UNL     1      46.239 -21.738 -41.224  0.00  0.00    -0.089 C 
ENDROOT
BRANCH   1   3
ATOM      2  C   UNL     1      47.371 -20.941 -41.516  0.00  0.00    -0.101 C 
ATOM      3  N   UNL     1      47.205 -21.921 -41.410  0.00  0.00    +0.374 N 
ATOM      4  C   UNL     1      48.170 -22.105 -41.595  0.00  0.00    -0.101 C 
ATOM      5  C   UNL     1      47.039 -22.902 -41.304  0.00  0.00    -0.101 C 
ENDBRANCH   1   3
BRANCH   1   6
ATOM      6  C   UNL     1      45.182 -21.476 -39.825  0.00  0.00    -0.067 C 
BRANCH   6   7
ATOM      7  C   UNL     1      43.725 -21.268 -40.279  0.00  0.00    -0.045 C 
BRANCH   7   8
ATOM      8  C   UNL     1      42.761 -21.346 -39.105  0.00  0.00    +0.003 C 
ATOM      9 BR   UNL     1      41.116 -22.207 -39.680  0.00  0.00    -0.092 Br
ENDBRANCH   7   8
ENDBRANCH   6   7
ENDBRANCH   1   6
TORSDOF 4
ENDMDL
MODEL 18
REMARK VINA RESULT:    -3.334     18.735     18.995
REMARK INTER + INTRA:          -2.130
REMARK INTER:                  -3.714
REMARK INTRA:                   1.584
REMARK UNBOUND:                 1.593
REMARK  Name = cpd242.pdb
REMARK  7 active torsions:
REMARK  status: ('A' for Active; 'I' for Inactive)
REMARK    1  A    between atoms: C_1  and  N_2
REMARK    2  A    between atoms: N_2  and  C_3
REMARK    3  A    between atoms: N_2  and  C_4
REMARK    4  A    between atoms: N_2  and  C_5
REMARK    5  A    between atoms: C_5  and  C_6
REMARK    6  A    between atoms: C_6  and  C_7
REMARK    7  A    between atoms: C_7  and  C_8
REMARK                            x       y       z     vdW  Elec       q    Type
REMARK                         _______ _______ _______ _____ _____    ______ ____
ROOT
ATOM      1  C   UNL     1      47.250 -21.576 -40.353  0.00  0.00    -0.089 C 
ENDROOT
BRANCH   1   3
ATOM      2  C   UNL     1      46.671 -22.031 -41.560  0.00  0.00    -0.101 C 
ATOM      3  N   UNL     1      47.416 -22.344 -40.971  0.00  0.00    +0.374 N 
ATOM      4  C   UNL     1      47.582 -23.113 -41.590  0.00  0.00    -0.101 C 
ATOM      5  C   UNL     1      48.161 -22.658 -40.382  0.00  0.00    -0.101 C 
ENDBRANCH   1   3
BRANCH   1   6
ATOM      6  C   UNL     1      46.173 -21.164 -39.006  0.00  0.00    -0.067 C 
BRANCH   6   7
ATOM      7  C   UNL     1      46.789 -20.046 -38.143  0.00  0.00    -0.045 C 
BRANCH   7   8
ATOM      8  C   UNL     1      46.170 -20.011 -36.755  0.00  0.00    +0.003 C 
ATOM      9 BR   UNL     1      47.302 -18.964 -35.573  0.00  0.00    -0.092 Br
ENDBRANCH   7   8
ENDBRANCH   6   7
ENDBRANCH   1   6
TORSDOF 4
ENDMDL
MODEL 19
REMARK VINA RESULT:    -3.292     31.034     32.020
REMARK INTER + INTRA:          -2.083
REMARK INTER:                  -3.594
REMARK INTRA:                   1.511
REMARK UNBOUND:                 1.593
REMARK  Name = cpd242.pdb
REMARK  7 active torsions:
REMARK  status: ('A' for Active; 'I' for Inactive)
REMARK    1  A    between atoms: C_1  and  N_2
REMARK    2  A    between atoms: N_2  and  C_3
REMARK    3  A    between atoms: N_2  and  C_4
REMARK    4  A    between atoms: N_2  and  C_5
REMARK    5  A    between atoms: C_5  and  C_6
REMARK    6  A    between atoms: C_6  and  C_7
REMARK    7  A    between atoms: C_7  and  C_8
REMARK                            x       y       z     vdW  Elec       q    Type
REMARK                         _______ _______ _______ _____ _____    ______ ____
ROOT
ATOM      1  C   UNL     1      63.459 -14.666 -30.423  0.00  0.00    -0.089 C 
ENDROOT
BRANCH   1   3
ATOM      2  C   UNL     1      64.443 -13.922 -29.732  0.00  0.00    -0.101 C 
ATOM      3  N   UNL     1      64.412 -14.824 -30.163  0.00  0.00    +0.374 N 
ATOM      4  C   UNL     1      65.364 -14.982 -29.902  0.00  0.00    -0.101 C 
ATOM      5  C   UNL     1      64.380 -15.726 -30.593  0.00  0.00    -0.101 C 
ENDBRANCH   1   3
BRANCH   1   6
ATOM      6  C   UNL     1      62.546 -14.075 -31.824  0.00  0.00    -0.067 C 
BRANCH   6   7
ATOM      7  C   UNL     1      61.033 -14.261 -31.600  0.00  0.00    -0.045 C 
BRANCH   7   8
ATOM      8  C   UNL     1      60.280 -12.953 -31.784  0.00  0.00    +0.003 C 
ATOM      9 BR   UNL     1      61.354 -11.490 -31.090  0.00  0.00    -0.092 Br
ENDBRANCH   7   8
ENDBRANCH   6   7
ENDBRANCH   1   6
TORSDOF 4
ENDMDL
MODEL 20
REMARK VINA RESULT:    -3.282      3.160      5.210
REMARK INTER + INTRA:          -2.072
REMARK INTER:                  -4.017
REMARK INTRA:                   1.945
REMARK UNBOUND:                 1.593
REMARK  Name = cpd242.pdb
REMARK  7 active torsions:
REMARK  status: ('A' for Active; 'I' for Inactive)
REMARK    1  A    between atoms: C_1  and  N_2
REMARK    2  A    between atoms: N_2  and  C_3
REMARK    3  A    between atoms: N_2  and  C_4
REMARK    4  A    between atoms: N_2  and  C_5
REMARK    5  A    between atoms: C_5  and  C_6
REMARK    6  A    between atoms: C_6  and  C_7
REMARK    7  A    between atoms: C_7  and  C_8
REMARK                            x       y       z     vdW  Elec       q    Type
REMARK                         _______ _______ _______ _____ _____    ______ ____
ROOT
ATOM      1  C   UNL     1      37.117 -36.207 -30.318  0.00  0.00    -0.089 C 
ENDROOT
BRANCH   1   3
ATOM      2  C   UNL     1      36.088 -37.106 -30.685  0.00  0.00    -0.101 C 
ATOM      3  N   UNL     1      36.196 -36.112 -30.696  0.00  0.00    +0.374 N 
ATOM      4  C   UNL     1      35.275 -36.016 -31.074  0.00  0.00    -0.101 C 
ATOM      5  C   UNL     1      36.303 -35.118 -30.707  0.00  0.00    -0.101 C 
ENDBRANCH   1   3
BRANCH   1   6
ATOM      6  C   UNL     1      38.703 -36.817 -30.824  0.00  0.00    -0.067 C 
BRANCH   6   7
ATOM      7  C   UNL     1      39.271 -35.959 -31.971  0.00  0.00    -0.045 C 
BRANCH   7   8
ATOM      8  C   UNL     1      40.733 -35.613 -31.733  0.00  0.00    +0.003 C 
ATOM      9 BR   UNL     1      41.819 -37.205 -31.982  0.00  0.00    -0.092 Br
ENDBRANCH   7   8
ENDBRANCH   6   7
ENDBRANCH   1   6
TORSDOF 4
ENDMDL
