@<TRIPOS>MOLECULE
*****
 36 41 0 0 0
SMALL
GASTEIGER

@<TRIPOS>ATOM
      1 C          -2.5985    1.5342    0.0000 C.3     1  UNL1        0.0006
      2 C          -1.7220    1.0288    0.0000 C.3     1  UNL1        0.0122
      3 C          -1.7214    0.0170    0.0000 C.3     1  UNL1        0.1090
      4 C          -2.5974   -0.4894    0.0000 C.3     1  UNL1        0.0128
      5 C          -0.8449   -0.4884    0.0000 C.2     1  UNL1        0.3309
      6 N          -0.8443   -1.4643    0.0000 N.2     1  UNL1       -0.0707
      7 C           0.0011   -1.9517    0.0000 C.3     1  UNL1        0.2184
      8 C           0.0014   -2.9281    0.0000 C.3     1  UNL1        0.0534
      9 C           0.8465   -3.4160    0.0000 C.3     1  UNL1        0.0049
     10 C           1.6914   -2.9276    0.0000 C.3     1  UNL1        0.0070
     11 C           1.6917   -3.9040    0.0000 C.3     1  UNL1        0.0073
     12 C           2.5371   -3.4156    0.0000 C.3     1  UNL1        0.0515
     13 C           2.5374   -4.3913    0.0000 C.2     1  UNL1        0.1498
     14 O           1.6683   -4.8934    0.0000 O.2     1  UNL1       -0.2961
     15 C           3.3831   -4.8793    0.0000 C.3     1  UNL1        0.0646
     16 C           4.2286   -4.3908    0.0000 C.3     1  UNL1        0.0106
     17 C           4.2288   -5.3946    0.0000 C.3     1  UNL1        0.0006
     18 C           5.0743   -4.8788    0.0000 C.3     1  UNL1        0.0455
     19 C           5.0746   -5.8541    0.0000 C.3     1  UNL1        0.0600
     20 C           4.1206   -6.0572    0.0000 C.3     1  UNL1        0.0174
     21 N           5.7274   -6.5788    0.0000 N.3     1  UNL1       -0.2715
     22 C           5.4263   -7.5065    0.0000 C.3     1  UNL1        0.0896
     23 C           6.6814   -6.3757    0.0000 C.3     1  UNL1        0.0896
     24 C           5.9185   -4.3904    0.0000 C.3     1  UNL1        0.1532
     25 O           6.7849   -4.8899    0.0000 O.3     1  UNL1       -0.2231
     26 C           5.9183   -3.4146    0.0000 C.3     1  UNL1        0.0330
     27 C           4.2283   -3.4151    0.0000 C.3     1  UNL1        0.0033
     28 C           4.2280   -2.4151    0.0000 C.3     1  UNL1        0.0001
     29 C           3.3825   -2.9271    0.0000 C.3     1  UNL1        0.0066
     30 C           3.3823   -1.9508    0.0000 C.3     1  UNL1        0.0004
     31 C           2.5365   -1.4628    0.0000 C.3     1  UNL1        0.0003
     32 C           1.6911   -1.9513    0.0000 C.3     1  UNL1        0.0085
     33 C           0.8460   -1.4633    0.0000 C.3     1  UNL1        0.0923
     34 C           1.7117   -0.9628    0.0000 C.3     1  UNL1        0.0086
     35 C           0.8454   -0.4875    0.0000 C.3     1  UNL1        0.2547
     36 N           0.0000   -0.0000    0.0000 N.pl3   1  UNL1       -0.0355
@<TRIPOS>BOND
     1     1     2    1
     2     2     3    1
     3     3     4    1
     4     3     5    1
     5     5     6    2
     6     6     7    1
     7     7     8    1
     8     8     9    1
     9     9    10    1
    10    10    11    1
    11    11    12    1
    12    10    12    1
    13    12    13    1
    14    13    14    2
    15    13    15    1
    16    15    16    1
    17    16    17    1
    18    16    18    1
    19    18    19    1
    20    19    20    1
    21    19    21    1
    22    21    22    1
    23    21    23    1
    24    18    24    1
    25    24    25    1
    26    24    26    1
    27    26    27    1
    28    16    27    1
    29    27    28    1
    30    27    29    1
    31    12    29    1
    32    29    30    1
    33    30    31    1
    34    31    32    1
    35    10    32    1
    36    32    33    1
    37     7    33    1
    38    33    34    1
    39    33    35    1
    40    35    36    1
    41     5    36    1
