MODEL 1
REMARK VINA RESULT:    -8.045      0.000      0.000
REMARK INTER + INTRA:         -10.547
REMARK INTER:                 -10.162
REMARK INTRA:                  -0.385
REMARK UNBOUND:                -0.385
REMARK  Name = cpd86.pdb
REMARK  13 active torsions:
REMARK  status: ('A' for Active; 'I' for Inactive)
REMARK    1  A    between atoms: C_1  and  C_2
REMARK    2  A    between atoms: C_2  and  C_3
REMARK    3  A    between atoms: C_3  and  C_4
REMARK    4  A    between atoms: C_3  and  C_5
REMARK    5  A    between atoms: C_16  and  C_17
REMARK    6  A    between atoms: C_18  and  C_19
REMARK    7  A    between atoms: C_19  and  C_20
REMARK    8  A    between atoms: C_19  and  N_21
REMARK    9  A    between atoms: N_21  and  C_22
REMARK   10  A    between atoms: N_21  and  C_23
REMARK   11  A    between atoms: C_24  and  O_25
REMARK   12  A    between atoms: C_27  and  C_28
REMARK   13  A    between atoms: C_33  and  C_34
REMARK                            x       y       z     vdW  Elec       q    Type
REMARK                         _______ _______ _______ _____ _____    ______ ____
ROOT
ATOM      1  C   UNL     1      29.679 -30.362 -31.127  0.00  0.00    +0.093 C 
ATOM      2  N   UNL     1      29.223 -31.567 -31.085  0.00  0.00    -0.269 N 
ATOM      3  C   UNL     1      30.158 -32.673 -30.814  0.00  0.00    +0.060 C 
ATOM      4  C   UNL     1      30.505 -33.314 -32.164  0.00  0.00    -0.029 C 
ATOM      5  C   UNL     1      31.481 -34.472 -32.010  0.00  0.00    -0.044 C 
ATOM      6  C   UNL     1      32.743 -34.017 -31.298  0.00  0.00    -0.012 C 
ATOM      7  C   UNL     1      33.840 -33.417 -32.138  0.00  0.00    -0.033 C 
ATOM      8  C   UNL     1      34.071 -34.801 -31.515  0.00  0.00    +0.039 C 
ATOM      9  C   UNL     1      34.101 -35.952 -32.533  0.00  0.00    +0.141 C 
ATOM     10  O   UNL     1      33.873 -35.738 -33.723  0.00  0.00    -0.297 OA
ATOM     11  C   UNL     1      34.461 -37.352 -32.068  0.00  0.00    +0.013 C 
ATOM     12  C   UNL     1      34.942 -37.410 -30.615  0.00  0.00    -0.013 C 
ATOM     13  C   UNL     1      33.671 -37.431 -29.734  0.00  0.00    -0.058 C 
ATOM     14  C   UNL     1      35.894 -38.630 -30.281  0.00  0.00    +0.007 C 
ATOM     15  C   UNL     1      36.904 -38.082 -29.223  0.00  0.00    +0.061 C 
ATOM     16  C   UNL     1      36.547 -36.601 -29.015  0.00  0.00    -0.020 C 
ATOM     17  C   UNL     1      35.892 -36.176 -30.345  0.00  0.00    -0.020 C 
ATOM     18  C   UNL     1      37.047 -36.026 -31.398  0.00  0.00    -0.059 C 
ATOM     19  C   UNL     1      35.126 -34.817 -30.372  0.00  0.00    -0.022 C 
ATOM     20  C   UNL     1      34.577 -34.365 -29.009  0.00  0.00    -0.048 C 
ATOM     21  C   UNL     1      33.698 -33.124 -29.108  0.00  0.00    -0.049 C 
ATOM     22  C   UNL     1      32.428 -33.434 -29.913  0.00  0.00    -0.026 C 
ATOM     23  C   UNL     1      31.402 -32.245 -29.986  0.00  0.00    +0.009 C 
ATOM     24  C   UNL     1      30.937 -31.896 -28.544  0.00  0.00    -0.056 C 
ATOM     25  C   UNL     1      32.004 -30.992 -30.646  0.00  0.00    +0.018 C 
ATOM     26  N   UNL     1      30.974 -30.002 -30.856  0.00  0.00    -0.332 N 
ATOM     27  H   UNL     1      28.266 -31.745 -31.232  0.00  0.00    +0.000 HD
ATOM     28  H   UNL     1      31.207 -29.047 -30.803  0.00  0.00    +0.000 HD
ENDROOT
BRANCH   1  29
ATOM     29  C   UNL     1      28.699 -29.229 -31.456  0.00  0.00    +0.011 C 
ATOM     30  C   UNL     1      28.124 -29.404 -32.860  0.00  0.00    -0.056 C 
BRANCH  29  32
ATOM     31  C   UNL     1      28.160 -28.763 -29.005  0.00  0.00    -0.065 C 
ATOM     32  C   UNL     1      27.618 -29.174 -30.366  0.00  0.00    -0.047 C 
ENDBRANCH  29  32
ENDBRANCH   1  29
BRANCH  14  33
ATOM     33  C   UNL     1      35.356 -40.103 -30.127  0.00  0.00    +0.013 C 
ATOM     34  C   UNL     1      35.501 -40.790 -31.512  0.00  0.00    -0.049 C 
BRANCH  33  35
ATOM     35  N   UNL     1      33.989 -40.316 -29.574  0.00  0.00    -0.305 N 
ATOM     36  C   UNL     1      33.162 -41.217 -30.389  0.00  0.00    -0.013 C 
ATOM     37  C   UNL     1      34.004 -40.848 -28.208  0.00  0.00    -0.013 C 
ATOM     38  H   UNL     1      33.580 -39.381 -29.580  0.00  0.00    +0.000 HD
ENDBRANCH  33  35
ENDBRANCH  14  33
BRANCH  15  39
ATOM     39  O   UNL     1      36.979 -38.774 -27.999  0.00  0.00    -0.391 OA
ATOM     40  H   UNL     1      37.686 -38.393 -27.456  0.00  0.00    +0.000 HD
ENDBRANCH  15  39
TORSDOF 5
ENDMDL
MODEL 2
REMARK VINA RESULT:    -7.364     16.760     20.158
REMARK INTER + INTRA:          -9.687
REMARK INTER:                  -9.233
REMARK INTRA:                  -0.453
REMARK UNBOUND:                -0.385
REMARK  Name = cpd86.pdb
REMARK  13 active torsions:
REMARK  status: ('A' for Active; 'I' for Inactive)
REMARK    1  A    between atoms: C_1  and  C_2
REMARK    2  A    between atoms: C_2  and  C_3
REMARK    3  A    between atoms: C_3  and  C_4
REMARK    4  A    between atoms: C_3  and  C_5
REMARK    5  A    between atoms: C_16  and  C_17
REMARK    6  A    between atoms: C_18  and  C_19
REMARK    7  A    between atoms: C_19  and  C_20
REMARK    8  A    between atoms: C_19  and  N_21
REMARK    9  A    between atoms: N_21  and  C_22
REMARK   10  A    between atoms: N_21  and  C_23
REMARK   11  A    between atoms: C_24  and  O_25
REMARK   12  A    between atoms: C_27  and  C_28
REMARK   13  A    between atoms: C_33  and  C_34
REMARK                            x       y       z     vdW  Elec       q    Type
REMARK                         _______ _______ _______ _____ _____    ______ ____
ROOT
ATOM      1  C   UNL     1      45.434 -20.626 -40.826  0.00  0.00    +0.093 C 
ATOM      2  N   UNL     1      44.451 -19.811 -40.998  0.00  0.00    -0.269 N 
ATOM      3  C   UNL     1      43.604 -19.462 -39.844  0.00  0.00    +0.060 C 
ATOM      4  C   UNL     1      42.338 -20.324 -39.933  0.00  0.00    -0.029 C 
ATOM      5  C   UNL     1      41.384 -20.057 -38.777  0.00  0.00    -0.044 C 
ATOM      6  C   UNL     1      42.083 -20.275 -37.446  0.00  0.00    -0.012 C 
ATOM      7  C   UNL     1      42.104 -21.675 -36.891  0.00  0.00    -0.033 C 
ATOM      8  C   UNL     1      41.238 -20.622 -36.185  0.00  0.00    +0.039 C 
ATOM      9  C   UNL     1      39.726 -20.847 -36.338  0.00  0.00    +0.141 C 
ATOM     10  O   UNL     1      39.299 -21.761 -37.043  0.00  0.00    -0.297 OA
ATOM     11  C   UNL     1      38.757 -19.962 -35.574  0.00  0.00    +0.013 C 
ATOM     12  C   UNL     1      39.442 -19.034 -34.566  0.00  0.00    -0.013 C 
ATOM     13  C   UNL     1      39.943 -17.811 -35.370  0.00  0.00    -0.058 C 
ATOM     14  C   UNL     1      38.530 -18.588 -33.350  0.00  0.00    +0.007 C 
ATOM     15  C   UNL     1      39.500 -18.482 -32.131  0.00  0.00    +0.061 C 
ATOM     16  C   UNL     1      40.888 -18.895 -32.648  0.00  0.00    -0.020 C 
ATOM     17  C   UNL     1      40.588 -19.836 -33.833  0.00  0.00    -0.020 C 
ATOM     18  C   UNL     1      40.113 -21.203 -33.224  0.00  0.00    -0.059 C 
ATOM     19  C   UNL     1      41.769 -20.194 -34.786  0.00  0.00    -0.022 C 
ATOM     20  C   UNL     1      42.890 -19.144 -34.839  0.00  0.00    -0.048 C 
ATOM     21  C   UNL     1      43.939 -19.452 -35.902  0.00  0.00    -0.049 C 
ATOM     22  C   UNL     1      43.316 -19.372 -37.303  0.00  0.00    -0.026 C 
ATOM     23  C   UNL     1      44.341 -19.571 -38.479  0.00  0.00    +0.009 C 
ATOM     24  C   UNL     1      45.411 -18.446 -38.406  0.00  0.00    -0.056 C 
ATOM     25  C   UNL     1      45.037 -20.943 -38.423  0.00  0.00    +0.018 C 
ATOM     26  N   UNL     1      45.820 -21.147 -39.618  0.00  0.00    -0.332 N 
ATOM     27  H   UNL     1      44.268 -19.428 -41.887  0.00  0.00    +0.000 HD
ATOM     28  H   UNL     1      46.651 -21.674 -39.564  0.00  0.00    +0.000 HD
ENDROOT
BRANCH   1  29
ATOM     29  C   UNL     1      46.275 -21.012 -42.049  0.00  0.00    +0.011 C 
ATOM     30  C   UNL     1      47.766 -20.935 -41.725  0.00  0.00    -0.056 C 
BRANCH  29  32
ATOM     31  C   UNL     1      46.952 -23.433 -42.487  0.00  0.00    -0.065 C 
ATOM     32  C   UNL     1      45.836 -22.401 -42.536  0.00  0.00    -0.047 C 
ENDBRANCH  29  32
ENDBRANCH   1  29
BRANCH  14  33
ATOM     33  C   UNL     1      37.380 -17.521 -33.504  0.00  0.00    +0.013 C 
ATOM     34  C   UNL     1      36.262 -17.907 -32.498  0.00  0.00    -0.049 C 
BRANCH  33  35
ATOM     35  N   UNL     1      36.809 -17.268 -34.856  0.00  0.00    -0.305 N 
ATOM     36  C   UNL     1      35.517 -17.931 -35.079  0.00  0.00    -0.013 C 
ATOM     37  C   UNL     1      36.626 -15.841 -35.139  0.00  0.00    -0.013 C 
ATOM     38  H   UNL     1      37.507 -17.662 -35.488  0.00  0.00    +0.000 HD
ENDBRANCH  33  35
ENDBRANCH  14  33
BRANCH  15  39
ATOM     39  O   UNL     1      39.544 -17.244 -31.461  0.00  0.00    -0.391 OA
ATOM     40  H   UNL     1      39.826 -17.383 -30.544  0.00  0.00    +0.000 HD
ENDBRANCH  15  39
TORSDOF 5
ENDMDL
MODEL 3
REMARK VINA RESULT:    -7.239     18.325     20.939
REMARK INTER + INTRA:          -9.528
REMARK INTER:                  -9.188
REMARK INTRA:                  -0.340
REMARK UNBOUND:                -0.385
REMARK  Name = cpd86.pdb
REMARK  13 active torsions:
REMARK  status: ('A' for Active; 'I' for Inactive)
REMARK    1  A    between atoms: C_1  and  C_2
REMARK    2  A    between atoms: C_2  and  C_3
REMARK    3  A    between atoms: C_3  and  C_4
REMARK    4  A    between atoms: C_3  and  C_5
REMARK    5  A    between atoms: C_16  and  C_17
REMARK    6  A    between atoms: C_18  and  C_19
REMARK    7  A    between atoms: C_19  and  C_20
REMARK    8  A    between atoms: C_19  and  N_21
REMARK    9  A    between atoms: N_21  and  C_22
REMARK   10  A    between atoms: N_21  and  C_23
REMARK   11  A    between atoms: C_24  and  O_25
REMARK   12  A    between atoms: C_27  and  C_28
REMARK   13  A    between atoms: C_33  and  C_34
REMARK                            x       y       z     vdW  Elec       q    Type
REMARK                         _______ _______ _______ _____ _____    ______ ____
ROOT
ATOM      1  C   UNL     1      47.116 -16.046 -39.774  0.00  0.00    +0.093 C 
ATOM      2  N   UNL     1      47.277 -16.668 -38.657  0.00  0.00    -0.269 N 
ATOM      3  C   UNL     1      46.226 -17.593 -38.199  0.00  0.00    +0.060 C 
ATOM      4  C   UNL     1      45.382 -16.843 -37.160  0.00  0.00    -0.029 C 
ATOM      5  C   UNL     1      44.248 -17.703 -36.619  0.00  0.00    -0.044 C 
ATOM      6  C   UNL     1      43.371 -18.206 -37.753  0.00  0.00    -0.012 C 
ATOM      7  C   UNL     1      42.252 -17.311 -38.218  0.00  0.00    -0.033 C 
ATOM      8  C   UNL     1      41.892 -18.596 -37.461  0.00  0.00    +0.039 C 
ATOM      9  C   UNL     1      41.320 -18.358 -36.055  0.00  0.00    +0.141 C 
ATOM     10  O   UNL     1      41.253 -17.220 -35.593  0.00  0.00    -0.297 OA
ATOM     11  C   UNL     1      40.791 -19.535 -35.254  0.00  0.00    +0.013 C 
ATOM     12  C   UNL     1      40.729 -20.841 -36.053  0.00  0.00    -0.013 C 
ATOM     13  C   UNL     1      42.154 -21.442 -36.019  0.00  0.00    -0.058 C 
ATOM     14  C   UNL     1      39.653 -21.882 -35.537  0.00  0.00    +0.007 C 
ATOM     15  C   UNL     1      39.127 -22.595 -36.824  0.00  0.00    +0.061 C 
ATOM     16  C   UNL     1      39.858 -21.940 -38.008  0.00  0.00    -0.020 C 
ATOM     17  C   UNL     1      40.199 -20.522 -37.507  0.00  0.00    -0.020 C 
ATOM     18  C   UNL     1      38.865 -19.695 -37.526  0.00  0.00    -0.059 C 
ATOM     19  C   UNL     1      41.218 -19.687 -38.343  0.00  0.00    -0.022 C 
ATOM     20  C   UNL     1      42.210 -20.525 -39.165  0.00  0.00    -0.048 C 
ATOM     21  C   UNL     1      43.287 -19.678 -39.833  0.00  0.00    -0.049 C 
ATOM     22  C   UNL     1      44.180 -19.020 -38.771  0.00  0.00    -0.026 C 
ATOM     23  C   UNL     1      45.391 -18.206 -39.359  0.00  0.00    +0.009 C 
ATOM     24  C   UNL     1      46.302 -19.175 -40.163  0.00  0.00    -0.056 C 
ATOM     25  C   UNL     1      44.934 -17.056 -40.274  0.00  0.00    +0.018 C 
ATOM     26  N   UNL     1      46.064 -16.233 -40.633  0.00  0.00    -0.332 N 
ATOM     27  H   UNL     1      48.089 -16.527 -38.118  0.00  0.00    +0.000 HD
ATOM     28  H   UNL     1      46.080 -15.796 -41.516  0.00  0.00    +0.000 HD
ENDROOT
BRANCH   1  29
ATOM     29  C   UNL     1      48.199 -15.053 -40.210  0.00  0.00    +0.011 C 
ATOM     30  C   UNL     1      47.816 -14.377 -41.526  0.00  0.00    -0.056 C 
BRANCH  29  32
ATOM     31  C   UNL     1      49.735 -13.261 -39.237  0.00  0.00    -0.065 C 
ATOM     32  C   UNL     1      48.447 -14.053 -39.071  0.00  0.00    -0.047 C 
ENDBRANCH  29  32
ENDBRANCH   1  29
BRANCH  14  33
ATOM     33  C   UNL     1      39.860 -22.732 -34.227  0.00  0.00    +0.013 C 
ATOM     34  C   UNL     1      38.492 -23.378 -33.879  0.00  0.00    -0.049 C 
BRANCH  33  35
ATOM     35  N   UNL     1      40.453 -22.074 -33.029  0.00  0.00    -0.305 N 
ATOM     36  C   UNL     1      39.487 -21.270 -32.266  0.00  0.00    -0.013 C 
ATOM     37  C   UNL     1      41.063 -23.029 -32.098  0.00  0.00    -0.013 C 
ATOM     38  H   UNL     1      41.169 -21.463 -33.422  0.00  0.00    +0.000 HD
ENDBRANCH  33  35
ENDBRANCH  14  33
BRANCH  15  39
ATOM     39  O   UNL     1      39.236 -23.999 -36.860  0.00  0.00    -0.391 OA
ATOM     40  H   UNL     1      39.894 -24.255 -37.525  0.00  0.00    +0.000 HD
ENDBRANCH  15  39
TORSDOF 5
ENDMDL
MODEL 4
REMARK VINA RESULT:    -7.033     19.835     23.420
REMARK INTER + INTRA:          -9.269
REMARK INTER:                  -8.981
REMARK INTRA:                  -0.288
REMARK UNBOUND:                -0.385
REMARK  Name = cpd86.pdb
REMARK  13 active torsions:
REMARK  status: ('A' for Active; 'I' for Inactive)
REMARK    1  A    between atoms: C_1  and  C_2
REMARK    2  A    between atoms: C_2  and  C_3
REMARK    3  A    between atoms: C_3  and  C_4
REMARK    4  A    between atoms: C_3  and  C_5
REMARK    5  A    between atoms: C_16  and  C_17
REMARK    6  A    between atoms: C_18  and  C_19
REMARK    7  A    between atoms: C_19  and  C_20
REMARK    8  A    between atoms: C_19  and  N_21
REMARK    9  A    between atoms: N_21  and  C_22
REMARK   10  A    between atoms: N_21  and  C_23
REMARK   11  A    between atoms: C_24  and  O_25
REMARK   12  A    between atoms: C_27  and  C_28
REMARK   13  A    between atoms: C_33  and  C_34
REMARK                            x       y       z     vdW  Elec       q    Type
REMARK                         _______ _______ _______ _____ _____    ______ ____
ROOT
ATOM      1  C   UNL     1      46.821 -21.778 -40.878  0.00  0.00    +0.093 C 
ATOM      2  N   UNL     1      45.604 -22.084 -40.583  0.00  0.00    -0.269 N 
ATOM      3  C   UNL     1      44.616 -21.003 -40.424  0.00  0.00    +0.060 C 
ATOM      4  C   UNL     1      44.459 -20.750 -38.918  0.00  0.00    -0.029 C 
ATOM      5  C   UNL     1      43.463 -19.636 -38.629  0.00  0.00    -0.044 C 
ATOM      6  C   UNL     1      43.867 -18.358 -39.344  0.00  0.00    -0.012 C 
ATOM      7  C   UNL     1      44.841 -17.446 -38.644  0.00  0.00    -0.033 C 
ATOM      8  C   UNL     1      43.384 -16.985 -38.790  0.00  0.00    +0.039 C 
ATOM      9  C   UNL     1      42.602 -16.946 -37.468  0.00  0.00    +0.141 C 
ATOM     10  O   UNL     1      43.122 -17.339 -36.424  0.00  0.00    -0.297 OA
ATOM     11  C   UNL     1      41.195 -16.375 -37.447  0.00  0.00    +0.013 C 
ATOM     12  C   UNL     1      40.783 -15.718 -38.769  0.00  0.00    -0.013 C 
ATOM     13  C   UNL     1      40.318 -16.863 -39.699  0.00  0.00    -0.058 C 
ATOM     14  C   UNL     1      39.671 -14.599 -38.633  0.00  0.00    +0.007 C 
ATOM     15  C   UNL     1      40.025 -13.538 -39.723  0.00  0.00    +0.061 C 
ATOM     16  C   UNL     1      41.310 -14.035 -40.406  0.00  0.00    -0.020 C 
ATOM     17  C   UNL     1      42.007 -14.891 -39.329  0.00  0.00    -0.020 C 
ATOM     18  C   UNL     1      42.628 -13.896 -38.284  0.00  0.00    -0.059 C 
ATOM     19  C   UNL     1      43.186 -15.804 -39.784  0.00  0.00    -0.022 C 
ATOM     20  C   UNL     1      43.131 -16.233 -41.259  0.00  0.00    -0.048 C 
ATOM     21  C   UNL     1      44.205 -17.254 -41.618  0.00  0.00    -0.049 C 
ATOM     22  C   UNL     1      43.963 -18.568 -40.861  0.00  0.00    -0.026 C 
ATOM     23  C   UNL     1      44.958 -19.726 -41.241  0.00  0.00    +0.009 C 
ATOM     24  C   UNL     1      44.795 -20.050 -42.752  0.00  0.00    -0.056 C 
ATOM     25  C   UNL     1      46.424 -19.356 -40.954  0.00  0.00    +0.018 C 
ATOM     26  N   UNL     1      47.270 -20.510 -41.142  0.00  0.00    -0.332 N 
ATOM     27  H   UNL     1      45.340 -23.026 -40.465  0.00  0.00    +0.000 HD
ATOM     28  H   UNL     1      48.190 -20.383 -41.468  0.00  0.00    +0.000 HD
ENDROOT
BRANCH   1  29
ATOM     29  C   UNL     1      47.844 -22.914 -40.994  0.00  0.00    +0.011 C 
ATOM     30  C   UNL     1      47.505 -23.829 -42.170  0.00  0.00    -0.056 C 
BRANCH  29  32
ATOM     31  C   UNL     1      50.011 -22.346 -39.772  0.00  0.00    -0.065 C 
ATOM     32  C   UNL     1      49.252 -22.308 -41.090  0.00  0.00    -0.047 C 
ENDBRANCH  29  32
ENDBRANCH   1  29
BRANCH  14  33
ATOM     33  C   UNL     1      38.156 -14.942 -38.368  0.00  0.00    +0.013 C 
ATOM     34  C   UNL     1      37.926 -14.843 -36.836  0.00  0.00    -0.049 C 
BRANCH  33  35
ATOM     35  N   UNL     1      37.602 -16.217 -38.903  0.00  0.00    -0.305 N 
ATOM     36  C   UNL     1      37.006 -17.075 -37.870  0.00  0.00    -0.013 C 
ATOM     37  C   UNL     1      36.587 -16.007 -39.940  0.00  0.00    -0.013 C 
ATOM     38  H   UNL     1      38.418 -16.683 -39.302  0.00  0.00    +0.000 HD
ENDBRANCH  33  35
ENDBRANCH  14  33
BRANCH  15  39
ATOM     39  O   UNL     1      39.021 -13.237 -40.664  0.00  0.00    -0.391 OA
ATOM     40  H   UNL     1      38.623 -14.060 -40.987  0.00  0.00    +0.000 HD
ENDBRANCH  15  39
TORSDOF 5
ENDMDL
MODEL 5
REMARK VINA RESULT:    -7.007     19.175     22.059
REMARK INTER + INTRA:          -9.236
REMARK INTER:                  -8.965
REMARK INTRA:                  -0.271
REMARK UNBOUND:                -0.385
REMARK  Name = cpd86.pdb
REMARK  13 active torsions:
REMARK  status: ('A' for Active; 'I' for Inactive)
REMARK    1  A    between atoms: C_1  and  C_2
REMARK    2  A    between atoms: C_2  and  C_3
REMARK    3  A    between atoms: C_3  and  C_4
REMARK    4  A    between atoms: C_3  and  C_5
REMARK    5  A    between atoms: C_16  and  C_17
REMARK    6  A    between atoms: C_18  and  C_19
REMARK    7  A    between atoms: C_19  and  C_20
REMARK    8  A    between atoms: C_19  and  N_21
REMARK    9  A    between atoms: N_21  and  C_22
REMARK   10  A    between atoms: N_21  and  C_23
REMARK   11  A    between atoms: C_24  and  O_25
REMARK   12  A    between atoms: C_27  and  C_28
REMARK   13  A    between atoms: C_33  and  C_34
REMARK                            x       y       z     vdW  Elec       q    Type
REMARK                         _______ _______ _______ _____ _____    ______ ____
ROOT
ATOM      1  C   UNL     1      45.733 -21.494 -40.319  0.00  0.00    +0.093 C 
ATOM      2  N   UNL     1      44.487 -21.173 -40.249  0.00  0.00    -0.269 N 
ATOM      3  C   UNL     1      44.053 -20.225 -39.207  0.00  0.00    +0.060 C 
ATOM      4  C   UNL     1      43.457 -21.053 -38.061  0.00  0.00    -0.029 C 
ATOM      5  C   UNL     1      42.981 -20.174 -36.912  0.00  0.00    -0.044 C 
ATOM      6  C   UNL     1      44.113 -19.299 -36.403  0.00  0.00    -0.012 C 
ATOM      7  C   UNL     1      45.031 -19.883 -35.361  0.00  0.00    -0.033 C 
ATOM      8  C   UNL     1      44.069 -18.762 -34.942  0.00  0.00    +0.039 C 
ATOM      9  C   UNL     1      42.936 -19.222 -34.011  0.00  0.00    +0.141 C 
ATOM     10  O   UNL     1      42.809 -20.411 -33.723  0.00  0.00    -0.297 OA
ATOM     11  C   UNL     1      41.998 -18.190 -33.409  0.00  0.00    +0.013 C 
ATOM     12  C   UNL     1      42.428 -16.744 -33.675  0.00  0.00    -0.013 C 
ATOM     13  C   UNL     1      41.923 -16.392 -35.094  0.00  0.00    -0.058 C 
ATOM     14  C   UNL     1      41.916 -15.694 -32.606  0.00  0.00    +0.007 C 
ATOM     15  C   UNL     1      43.060 -14.636 -32.494  0.00  0.00    +0.061 C 
ATOM     16  C   UNL     1      44.178 -15.110 -33.437  0.00  0.00    -0.020 C 
ATOM     17  C   UNL     1      43.995 -16.640 -33.505  0.00  0.00    -0.020 C 
ATOM     18  C   UNL     1      44.524 -17.226 -32.148  0.00  0.00    -0.059 C 
ATOM     19  C   UNL     1      44.768 -17.410 -34.620  0.00  0.00    -0.022 C 
ATOM     20  C   UNL     1      45.105 -16.570 -35.863  0.00  0.00    -0.048 C 
ATOM     21  C   UNL     1      45.710 -17.399 -36.990  0.00  0.00    -0.049 C 
ATOM     22  C   UNL     1      44.681 -18.410 -37.518  0.00  0.00    -0.026 C 
ATOM     23  C   UNL     1      45.173 -19.245 -38.756  0.00  0.00    +0.009 C 
ATOM     24  C   UNL     1      45.476 -18.271 -39.928  0.00  0.00    -0.056 C 
ATOM     25  C   UNL     1      46.431 -20.074 -38.442  0.00  0.00    +0.018 C 
ATOM     26  N   UNL     1      46.727 -20.958 -39.543  0.00  0.00    -0.332 N 
ATOM     27  H   UNL     1      43.835 -21.555 -40.881  0.00  0.00    +0.000 HD
ATOM     28  H   UNL     1      47.666 -21.180 -39.742  0.00  0.00    +0.000 HD
ENDROOT
BRANCH   1  29
ATOM     29  C   UNL     1      46.156 -22.517 -41.380  0.00  0.00    +0.011 C 
ATOM     30  C   UNL     1      45.443 -22.249 -42.705  0.00  0.00    -0.056 C 
BRANCH  29  32
ATOM     31  C   UNL     1      48.246 -23.734 -42.196  0.00  0.00    -0.065 C 
ATOM     32  C   UNL     1      47.687 -22.498 -41.507  0.00  0.00    -0.047 C 
ENDBRANCH  29  32
ENDBRANCH   1  29
BRANCH  14  33
ATOM     33  C   UNL     1      40.419 -15.206 -32.552  0.00  0.00    +0.013 C 
ATOM     34  C   UNL     1      39.641 -16.213 -31.663  0.00  0.00    -0.049 C 
BRANCH  33  35
ATOM     35  N   UNL     1      39.695 -14.962 -33.830  0.00  0.00    -0.305 N 
ATOM     36  C   UNL     1      38.416 -15.681 -33.924  0.00  0.00    -0.013 C 
ATOM     37  C   UNL     1      39.419 -13.542 -34.068  0.00  0.00    -0.013 C 
ATOM     38  H   UNL     1      40.336 -15.318 -34.540  0.00  0.00    +0.000 HD
ENDBRANCH  33  35
ENDBRANCH  14  33
BRANCH  15  39
ATOM     39  O   UNL     1      42.709 -13.295 -32.739  0.00  0.00    -0.391 OA
ATOM     40  H   UNL     1      42.917 -13.069 -33.659  0.00  0.00    +0.000 HD
ENDBRANCH  15  39
TORSDOF 5
ENDMDL
MODEL 6
REMARK VINA RESULT:    -6.906      2.829      9.147
REMARK INTER + INTRA:          -9.108
REMARK INTER:                  -8.671
REMARK INTRA:                  -0.437
REMARK UNBOUND:                -0.385
REMARK  Name = cpd86.pdb
REMARK  13 active torsions:
REMARK  status: ('A' for Active; 'I' for Inactive)
REMARK    1  A    between atoms: C_1  and  C_2
REMARK    2  A    between atoms: C_2  and  C_3
REMARK    3  A    between atoms: C_3  and  C_4
REMARK    4  A    between atoms: C_3  and  C_5
REMARK    5  A    between atoms: C_16  and  C_17
REMARK    6  A    between atoms: C_18  and  C_19
REMARK    7  A    between atoms: C_19  and  C_20
REMARK    8  A    between atoms: C_19  and  N_21
REMARK    9  A    between atoms: N_21  and  C_22
REMARK   10  A    between atoms: N_21  and  C_23
REMARK   11  A    between atoms: C_24  and  O_25
REMARK   12  A    between atoms: C_27  and  C_28
REMARK   13  A    between atoms: C_33  and  C_34
REMARK                            x       y       z     vdW  Elec       q    Type
REMARK                         _______ _______ _______ _____ _____    ______ ____
ROOT
ATOM      1  C   UNL     1      35.843 -37.059 -30.591  0.00  0.00    +0.093 C 
ATOM      2  N   UNL     1      35.276 -36.789 -29.465  0.00  0.00    -0.269 N 
ATOM      3  C   UNL     1      33.994 -36.064 -29.469  0.00  0.00    +0.060 C 
ATOM      4  C   UNL     1      34.305 -34.591 -29.169  0.00  0.00    -0.029 C 
ATOM      5  C   UNL     1      33.047 -33.734 -29.159  0.00  0.00    -0.044 C 
ATOM      6  C   UNL     1      32.301 -33.862 -30.476  0.00  0.00    -0.012 C 
ATOM      7  C   UNL     1      32.715 -32.952 -31.603  0.00  0.00    -0.033 C 
ATOM      8  C   UNL     1      31.354 -32.715 -30.935  0.00  0.00    +0.039 C 
ATOM      9  C   UNL     1      31.280 -31.428 -30.098  0.00  0.00    +0.141 C 
ATOM     10  O   UNL     1      32.278 -30.726 -29.944  0.00  0.00    -0.297 OA
ATOM     11  C   UNL     1      29.951 -31.000 -29.500  0.00  0.00    +0.013 C 
ATOM     12  C   UNL     1      28.766 -31.848 -29.974  0.00  0.00    -0.013 C 
ATOM     13  C   UNL     1      28.763 -33.123 -29.100  0.00  0.00    -0.058 C 
ATOM     14  C   UNL     1      27.364 -31.112 -29.924  0.00  0.00    +0.007 C 
ATOM     15  C   UNL     1      26.570 -31.665 -31.149  0.00  0.00    +0.061 C 
ATOM     16  C   UNL     1      27.516 -32.638 -31.872  0.00  0.00    -0.020 C 
ATOM     17  C   UNL     1      28.928 -32.127 -31.521  0.00  0.00    -0.020 C 
ATOM     18  C   UNL     1      29.173 -30.833 -32.375  0.00  0.00    -0.059 C 
ATOM     19  C   UNL     1      30.133 -33.066 -31.834  0.00  0.00    -0.022 C 
ATOM     20  C   UNL     1      29.788 -34.564 -31.860  0.00  0.00    -0.048 C 
ATOM     21  C   UNL     1      31.019 -35.451 -32.004  0.00  0.00    -0.049 C 
ATOM     22  C   UNL     1      31.918 -35.320 -30.766  0.00  0.00    -0.026 C 
ATOM     23  C   UNL     1      33.166 -36.277 -30.768  0.00  0.00    +0.009 C 
ATOM     24  C   UNL     1      32.668 -37.749 -30.798  0.00  0.00    -0.056 C 
ATOM     25  C   UNL     1      34.093 -36.027 -31.970  0.00  0.00    +0.018 C 
ATOM     26  N   UNL     1      35.307 -36.794 -31.824  0.00  0.00    -0.332 N 
ATOM     27  H   UNL     1      35.693 -37.064 -28.616  0.00  0.00    +0.000 HD
ATOM     28  H   UNL     1      35.760 -37.135 -32.629  0.00  0.00    +0.000 HD
ENDROOT
BRANCH   1  29
ATOM     29  C   UNL     1      37.200 -37.774 -30.563  0.00  0.00    +0.011 C 
ATOM     30  C   UNL     1      38.341 -36.775 -30.751  0.00  0.00    -0.056 C 
BRANCH  29  32
ATOM     31  C   UNL     1      38.453 -38.114 -28.366  0.00  0.00    -0.065 C 
ATOM     32  C   UNL     1      37.312 -38.578 -29.260  0.00  0.00    -0.047 C 
ENDBRANCH  29  32
ENDBRANCH   1  29
BRANCH  14  33
ATOM     33  C   UNL     1      26.596 -30.852 -28.573  0.00  0.00    +0.013 C 
ATOM     34  C   UNL     1      25.707 -29.597 -28.787  0.00  0.00    -0.049 C 
BRANCH  33  35
ATOM     35  N   UNL     1      27.378 -30.735 -27.311  0.00  0.00    -0.305 N 
ATOM     36  C   UNL     1      27.768 -29.354 -26.990  0.00  0.00    -0.013 C 
ATOM     37  C   UNL     1      26.667 -31.272 -26.147  0.00  0.00    -0.013 C 
ATOM     38  H   UNL     1      28.215 -31.289 -27.496  0.00  0.00    +0.000 HD
ENDBRANCH  33  35
ENDBRANCH  14  33
BRANCH  15  39
ATOM     39  O   UNL     1      25.322 -32.259 -30.880  0.00  0.00    -0.391 OA
ATOM     40  H   UNL     1      25.453 -33.185 -30.626  0.00  0.00    +0.000 HD
ENDBRANCH  15  39
TORSDOF 5
ENDMDL
MODEL 7
REMARK VINA RESULT:    -6.861     20.496     22.847
REMARK INTER + INTRA:          -9.051
REMARK INTER:                  -8.586
REMARK INTRA:                  -0.465
REMARK UNBOUND:                -0.385
REMARK  Name = cpd86.pdb
REMARK  13 active torsions:
REMARK  status: ('A' for Active; 'I' for Inactive)
REMARK    1  A    between atoms: C_1  and  C_2
REMARK    2  A    between atoms: C_2  and  C_3
REMARK    3  A    between atoms: C_3  and  C_4
REMARK    4  A    between atoms: C_3  and  C_5
REMARK    5  A    between atoms: C_16  and  C_17
REMARK    6  A    between atoms: C_18  and  C_19
REMARK    7  A    between atoms: C_19  and  C_20
REMARK    8  A    between atoms: C_19  and  N_21
REMARK    9  A    between atoms: N_21  and  C_22
REMARK   10  A    between atoms: N_21  and  C_23
REMARK   11  A    between atoms: C_24  and  O_25
REMARK   12  A    between atoms: C_27  and  C_28
REMARK   13  A    between atoms: C_33  and  C_34
REMARK                            x       y       z     vdW  Elec       q    Type
REMARK                         _______ _______ _______ _____ _____    ______ ____
ROOT
ATOM      1  C   UNL     1      48.167 -14.518 -41.112  0.00  0.00    +0.093 C 
ATOM      2  N   UNL     1      46.984 -14.916 -41.432  0.00  0.00    -0.269 N 
ATOM      3  C   UNL     1      46.177 -15.630 -40.428  0.00  0.00    +0.060 C 
ATOM      4  C   UNL     1      46.292 -17.129 -40.735  0.00  0.00    -0.029 C 
ATOM      5  C   UNL     1      45.502 -17.976 -39.747  0.00  0.00    -0.044 C 
ATOM      6  C   UNL     1      45.946 -17.690 -38.323  0.00  0.00    -0.012 C 
ATOM      7  C   UNL     1      47.124 -18.462 -37.792  0.00  0.00    -0.033 C 
ATOM      8  C   UNL     1      45.733 -18.771 -37.223  0.00  0.00    +0.039 C 
ATOM      9  C   UNL     1      45.180 -20.147 -37.625  0.00  0.00    +0.141 C 
ATOM     10  O   UNL     1      45.804 -20.867 -38.403  0.00  0.00    -0.297 OA
ATOM     11  C   UNL     1      43.877 -20.636 -37.017  0.00  0.00    +0.013 C 
ATOM     12  C   UNL     1      43.347 -19.734 -35.898  0.00  0.00    -0.013 C 
ATOM     13  C   UNL     1      42.601 -18.570 -36.591  0.00  0.00    -0.058 C 
ATOM     14  C   UNL     1      42.420 -20.464 -34.842  0.00  0.00    +0.007 C 
ATOM     15  C   UNL     1      42.728 -19.767 -33.478  0.00  0.00    +0.061 C 
ATOM     16  C   UNL     1      43.817 -18.720 -33.767  0.00  0.00    -0.020 C 
ATOM     17  C   UNL     1      44.562 -19.275 -34.998  0.00  0.00    -0.020 C 
ATOM     18  C   UNL     1      45.459 -20.460 -34.494  0.00  0.00    -0.059 C 
ATOM     19  C   UNL     1      45.530 -18.311 -35.750  0.00  0.00    -0.022 C 
ATOM     20  C   UNL     1      45.190 -16.818 -35.604  0.00  0.00    -0.048 C 
ATOM     21  C   UNL     1      46.057 -15.926 -36.484  0.00  0.00    -0.049 C 
ATOM     22  C   UNL     1      45.774 -16.207 -37.968  0.00  0.00    -0.026 C 
ATOM     23  C   UNL     1      46.544 -15.262 -38.962  0.00  0.00    +0.009 C 
ATOM     24  C   UNL     1      46.104 -13.794 -38.699  0.00  0.00    -0.056 C 
ATOM     25  C   UNL     1      48.071 -15.372 -38.812  0.00  0.00    +0.018 C 
ATOM     26  N   UNL     1      48.725 -14.633 -39.865  0.00  0.00    -0.332 N 
ATOM     27  H   UNL     1      46.625 -14.745 -42.333  0.00  0.00    +0.000 HD
ATOM     28  H   UNL     1      49.591 -14.201 -39.684  0.00  0.00    +0.000 HD
ENDROOT
BRANCH   1  29
ATOM     29  C   UNL     1      49.008 -13.817 -42.186  0.00  0.00    +0.011 C 
ATOM     30  C   UNL     1      50.406 -13.500 -41.656  0.00  0.00    -0.056 C 
BRANCH  29  32
ATOM     31  C   UNL     1      50.351 -15.410 -43.660  0.00  0.00    -0.065 C 
ATOM     32  C   UNL     1      49.028 -14.689 -43.450  0.00  0.00    -0.047 C 
ENDBRANCH  29  32
ENDBRANCH   1  29
BRANCH  14  33
ATOM     33  C   UNL     1      40.935 -20.878 -35.166  0.00  0.00    +0.013 C 
ATOM     34  C   UNL     1      40.585 -22.082 -34.250  0.00  0.00    -0.049 C 
BRANCH  33  35
ATOM     35  N   UNL     1      40.560 -21.165 -36.579  0.00  0.00    -0.305 N 
ATOM     36  C   UNL     1      40.483 -22.600 -36.884  0.00  0.00    -0.013 C 
ATOM     37  C   UNL     1      39.278 -20.564 -36.961  0.00  0.00    -0.013 C 
ATOM     38  H   UNL     1      41.318 -20.744 -37.118  0.00  0.00    +0.000 HD
ENDBRANCH  33  35
ENDBRANCH  14  33
BRANCH  15  39
ATOM     39  O   UNL     1      41.635 -19.203 -32.793  0.00  0.00    -0.391 OA
ATOM     40  H   UNL     1      41.189 -19.891 -32.275  0.00  0.00    +0.000 HD
ENDBRANCH  15  39
TORSDOF 5
ENDMDL
MODEL 8
REMARK VINA RESULT:    -6.696     21.827     23.963
REMARK INTER + INTRA:          -8.843
REMARK INTER:                  -8.575
REMARK INTRA:                  -0.268
REMARK UNBOUND:                -0.385
REMARK  Name = cpd86.pdb
REMARK  13 active torsions:
REMARK  status: ('A' for Active; 'I' for Inactive)
REMARK    1  A    between atoms: C_1  and  C_2
REMARK    2  A    between atoms: C_2  and  C_3
REMARK    3  A    between atoms: C_3  and  C_4
REMARK    4  A    between atoms: C_3  and  C_5
REMARK    5  A    between atoms: C_16  and  C_17
REMARK    6  A    between atoms: C_18  and  C_19
REMARK    7  A    between atoms: C_19  and  C_20
REMARK    8  A    between atoms: C_19  and  N_21
REMARK    9  A    between atoms: N_21  and  C_22
REMARK   10  A    between atoms: N_21  and  C_23
REMARK   11  A    between atoms: C_24  and  O_25
REMARK   12  A    between atoms: C_27  and  C_28
REMARK   13  A    between atoms: C_33  and  C_34
REMARK                            x       y       z     vdW  Elec       q    Type
REMARK                         _______ _______ _______ _____ _____    ______ ____
ROOT
ATOM      1  C   UNL     1      46.491 -12.591 -42.687  0.00  0.00    +0.093 C 
ATOM      2  N   UNL     1      45.362 -12.681 -42.073  0.00  0.00    -0.269 N 
ATOM      3  C   UNL     1      45.187 -13.734 -41.056  0.00  0.00    +0.060 C 
ATOM      4  C   UNL     1      44.421 -14.885 -41.722  0.00  0.00    -0.029 C 
ATOM      5  C   UNL     1      44.189 -16.044 -40.764  0.00  0.00    -0.044 C 
ATOM      6  C   UNL     1      45.508 -16.541 -40.196  0.00  0.00    -0.012 C 
ATOM      7  C   UNL     1      46.268 -17.567 -40.994  0.00  0.00    -0.033 C 
ATOM      8  C   UNL     1      45.614 -18.005 -39.676  0.00  0.00    +0.039 C 
ATOM      9  C   UNL     1      44.416 -18.950 -39.853  0.00  0.00    +0.141 C 
ATOM     10  O   UNL     1      44.006 -19.234 -40.977  0.00  0.00    -0.297 OA
ATOM     11  C   UNL     1      43.766 -19.571 -38.628  0.00  0.00    +0.013 C 
ATOM     12  C   UNL     1      44.533 -19.305 -37.329  0.00  0.00    -0.013 C 
ATOM     13  C   UNL     1      44.111 -17.895 -36.853  0.00  0.00    -0.058 C 
ATOM     14  C   UNL     1      44.307 -20.387 -36.194  0.00  0.00    +0.007 C 
ATOM     15  C   UNL     1      45.676 -20.488 -35.449  0.00  0.00    +0.061 C 
ATOM     16  C   UNL     1      46.632 -19.526 -36.174  0.00  0.00    -0.020 C 
ATOM     17  C   UNL     1      46.080 -19.453 -37.612  0.00  0.00    -0.020 C 
ATOM     18  C   UNL     1      46.467 -20.800 -38.321  0.00  0.00    -0.059 C 
ATOM     19  C   UNL     1      46.627 -18.324 -38.538  0.00  0.00    -0.022 C 
ATOM     20  C   UNL     1      47.143 -17.080 -37.796  0.00  0.00    -0.048 C 
ATOM     21  C   UNL     1      47.512 -15.940 -38.738  0.00  0.00    -0.049 C 
ATOM     22  C   UNL     1      46.261 -15.423 -39.463  0.00  0.00    -0.026 C 
ATOM     23  C   UNL     1      46.518 -14.173 -40.383  0.00  0.00    +0.009 C 
ATOM     24  C   UNL     1      47.035 -13.001 -39.503  0.00  0.00    -0.056 C 
ATOM     25  C   UNL     1      47.539 -14.466 -41.496  0.00  0.00    +0.018 C 
ATOM     26  N   UNL     1      47.596 -13.356 -42.417  0.00  0.00    -0.332 N 
ATOM     27  H   UNL     1      44.629 -12.057 -42.279  0.00  0.00    +0.000 HD
ATOM     28  H   UNL     1      48.449 -13.142 -42.860  0.00  0.00    +0.000 HD
ENDROOT
BRANCH   1  29
ATOM     29  C   UNL     1      46.638 -11.520 -43.774  0.00  0.00    +0.011 C 
ATOM     30  C   UNL     1      48.104 -11.129 -43.953  0.00  0.00    -0.056 C 
BRANCH  29  32
ATOM     31  C   UNL     1      45.165 -10.972 -45.785  0.00  0.00    -0.065 C 
ATOM     32  C   UNL     1      45.990 -12.031 -45.069  0.00  0.00    -0.047 C 
ENDBRANCH  29  32
ENDBRANCH   1  29
BRANCH  14  33
ATOM     33  C   UNL     1      42.976 -20.465 -35.355  0.00  0.00    +0.013 C 
ATOM     34  C   UNL     1      41.866 -20.988 -36.307  0.00  0.00    -0.049 C 
BRANCH  33  35
ATOM     35  N   UNL     1      42.514 -19.253 -34.623  0.00  0.00    -0.305 N 
ATOM     36  C   UNL     1      41.163 -18.817 -35.006  0.00  0.00    -0.013 C 
ATOM     37  C   UNL     1      42.523 -19.428 -33.168  0.00  0.00    -0.013 C 
ATOM     38  H   UNL     1      43.190 -18.538 -34.894  0.00  0.00    +0.000 HD
ENDBRANCH  33  35
ENDBRANCH  14  33
BRANCH  15  39
ATOM     39  O   UNL     1      45.660 -20.254 -34.060  0.00  0.00    -0.391 OA
ATOM     40  H   UNL     1      44.743 -20.194 -33.753  0.00  0.00    +0.000 HD
ENDBRANCH  15  39
TORSDOF 5
ENDMDL
MODEL 9
REMARK VINA RESULT:    -6.687     17.383     20.892
REMARK INTER + INTRA:          -8.832
REMARK INTER:                  -8.597
REMARK INTRA:                  -0.235
REMARK UNBOUND:                -0.385
REMARK  Name = cpd86.pdb
REMARK  13 active torsions:
REMARK  status: ('A' for Active; 'I' for Inactive)
REMARK    1  A    between atoms: C_1  and  C_2
REMARK    2  A    between atoms: C_2  and  C_3
REMARK    3  A    between atoms: C_3  and  C_4
REMARK    4  A    between atoms: C_3  and  C_5
REMARK    5  A    between atoms: C_16  and  C_17
REMARK    6  A    between atoms: C_18  and  C_19
REMARK    7  A    between atoms: C_19  and  C_20
REMARK    8  A    between atoms: C_19  and  N_21
REMARK    9  A    between atoms: N_21  and  C_22
REMARK   10  A    between atoms: N_21  and  C_23
REMARK   11  A    between atoms: C_24  and  O_25
REMARK   12  A    between atoms: C_27  and  C_28
REMARK   13  A    between atoms: C_33  and  C_34
REMARK                            x       y       z     vdW  Elec       q    Type
REMARK                         _______ _______ _______ _____ _____    ______ ____
ROOT
ATOM      1  C   UNL     1      46.223 -21.156 -40.938  0.00  0.00    +0.093 C 
ATOM      2  N   UNL     1      45.134 -20.853 -41.557  0.00  0.00    -0.269 N 
ATOM      3  C   UNL     1      44.014 -20.282 -40.789  0.00  0.00    +0.060 C 
ATOM      4  C   UNL     1      43.026 -21.423 -40.512  0.00  0.00    -0.029 C 
ATOM      5  C   UNL     1      41.822 -20.951 -39.708  0.00  0.00    -0.044 C 
ATOM      6  C   UNL     1      42.268 -20.306 -38.407  0.00  0.00    -0.012 C 
ATOM      7  C   UNL     1      42.499 -21.209 -37.224  0.00  0.00    -0.033 C 
ATOM      8  C   UNL     1      41.288 -20.266 -37.197  0.00  0.00    +0.039 C 
ATOM      9  C   UNL     1      39.932 -20.980 -37.310  0.00  0.00    +0.141 C 
ATOM     10  O   UNL     1      39.881 -22.196 -37.486  0.00  0.00    -0.297 OA
ATOM     11  C   UNL     1      38.651 -20.180 -37.154  0.00  0.00    +0.013 C 
ATOM     12  C   UNL     1      38.884 -18.733 -36.709  0.00  0.00    -0.013 C 
ATOM     13  C   UNL     1      39.241 -17.935 -37.985  0.00  0.00    -0.058 C 
ATOM     14  C   UNL     1      37.666 -18.072 -35.941  0.00  0.00    +0.007 C 
ATOM     15  C   UNL     1      38.317 -17.127 -34.882  0.00  0.00    +0.061 C 
ATOM     16  C   UNL     1      39.839 -17.293 -35.034  0.00  0.00    -0.020 C 
ATOM     17  C   UNL     1      40.011 -18.716 -35.603  0.00  0.00    -0.020 C 
ATOM     18  C   UNL     1      39.751 -19.716 -34.421  0.00  0.00    -0.059 C 
ATOM     19  C   UNL     1      41.411 -19.101 -36.172  0.00  0.00    -0.022 C 
ATOM     20  C   UNL     1      42.246 -17.913 -36.676  0.00  0.00    -0.048 C 
ATOM     21  C   UNL     1      43.531 -18.347 -37.373  0.00  0.00    -0.049 C 
ATOM     22  C   UNL     1      43.203 -19.116 -38.661  0.00  0.00    -0.026 C 
ATOM     23  C   UNL     1      44.464 -19.519 -39.512  0.00  0.00    +0.009 C 
ATOM     24  C   UNL     1      45.207 -18.225 -39.947  0.00  0.00    -0.056 C 
ATOM     25  C   UNL     1      45.431 -20.426 -38.732  0.00  0.00    +0.018 C 
ATOM     26  N   UNL     1      46.466 -20.915 -39.611  0.00  0.00    -0.332 N 
ATOM     27  H   UNL     1      45.052 -21.000 -42.528  0.00  0.00    +0.000 HD
ATOM     28  H   UNL     1      47.367 -21.078 -39.249  0.00  0.00    +0.000 HD
ENDROOT
BRANCH   1  29
ATOM     29  C   UNL     1      47.360 -21.791 -41.747  0.00  0.00    +0.011 C 
ATOM     30  C   UNL     1      48.582 -22.035 -40.863  0.00  0.00    -0.056 C 
BRANCH  29  32
ATOM     31  C   UNL     1      47.890 -24.167 -42.515  0.00  0.00    -0.065 C 
ATOM     32  C   UNL     1      46.840 -23.071 -42.418  0.00  0.00    -0.047 C 
ENDBRANCH  29  32
ENDBRANCH   1  29
BRANCH  14  33
ATOM     33  C   UNL     1      36.357 -17.601 -36.680  0.00  0.00    +0.013 C 
ATOM     34  C   UNL     1      35.386 -18.812 -36.707  0.00  0.00    -0.049 C 
BRANCH  33  35
ATOM     35  N   UNL     1      36.475 -16.989 -38.033  0.00  0.00    -0.305 N 
ATOM     36  C   UNL     1      35.451 -17.458 -38.977  0.00  0.00    -0.013 C 
ATOM     37  C   UNL     1      36.409 -15.525 -38.004  0.00  0.00    -0.013 C 
ATOM     38  H   UNL     1      37.396 -17.292 -38.352  0.00  0.00    +0.000 HD
ENDBRANCH  33  35
ENDBRANCH  14  33
BRANCH  15  39
ATOM     39  O   UNL     1      37.937 -15.772 -34.923  0.00  0.00    -0.391 OA
ATOM     40  H   UNL     1      37.515 -15.529 -34.084  0.00  0.00    +0.000 HD
ENDBRANCH  15  39
TORSDOF 5
ENDMDL
MODEL 10
REMARK VINA RESULT:    -6.678      2.917      9.238
REMARK INTER + INTRA:          -8.820
REMARK INTER:                  -8.558
REMARK INTRA:                  -0.262
REMARK UNBOUND:                -0.385
REMARK  Name = cpd86.pdb
REMARK  13 active torsions:
REMARK  status: ('A' for Active; 'I' for Inactive)
REMARK    1  A    between atoms: C_1  and  C_2
REMARK    2  A    between atoms: C_2  and  C_3
REMARK    3  A    between atoms: C_3  and  C_4
REMARK    4  A    between atoms: C_3  and  C_5
REMARK    5  A    between atoms: C_16  and  C_17
REMARK    6  A    between atoms: C_18  and  C_19
REMARK    7  A    between atoms: C_19  and  C_20
REMARK    8  A    between atoms: C_19  and  N_21
REMARK    9  A    between atoms: N_21  and  C_22
REMARK   10  A    between atoms: N_21  and  C_23
REMARK   11  A    between atoms: C_24  and  O_25
REMARK   12  A    between atoms: C_27  and  C_28
REMARK   13  A    between atoms: C_33  and  C_34
REMARK                            x       y       z     vdW  Elec       q    Type
REMARK                         _______ _______ _______ _____ _____    ______ ____
ROOT
ATOM      1  C   UNL     1      36.052 -35.878 -30.810  0.00  0.00    +0.093 C 
ATOM      2  N   UNL     1      35.766 -35.067 -31.770  0.00  0.00    -0.269 N 
ATOM      3  C   UNL     1      34.543 -34.251 -31.673  0.00  0.00    +0.060 C 
ATOM      4  C   UNL     1      33.468 -34.944 -32.521  0.00  0.00    -0.029 C 
ATOM      5  C   UNL     1      32.144 -34.192 -32.488  0.00  0.00    -0.044 C 
ATOM      6  C   UNL     1      31.664 -34.018 -31.057  0.00  0.00    -0.012 C 
ATOM      7  C   UNL     1      30.856 -35.136 -30.452  0.00  0.00    -0.033 C 
ATOM      8  C   UNL     1      30.145 -33.815 -30.779  0.00  0.00    +0.039 C 
ATOM      9  C   UNL     1      29.152 -33.909 -31.948  0.00  0.00    +0.141 C 
ATOM     10  O   UNL     1      29.036 -34.954 -32.586  0.00  0.00    -0.297 OA
ATOM     11  C   UNL     1      28.279 -32.713 -32.285  0.00  0.00    +0.013 C 
ATOM     12  C   UNL     1      28.375 -31.578 -31.260  0.00  0.00    -0.013 C 
ATOM     13  C   UNL     1      29.642 -30.769 -31.623  0.00  0.00    -0.058 C 
ATOM     14  C   UNL     1      27.098 -30.644 -31.186  0.00  0.00    +0.007 C 
ATOM     15  C   UNL     1      26.979 -30.236 -29.683  0.00  0.00    +0.061 C 
ATOM     16  C   UNL     1      28.125 -30.953 -28.950  0.00  0.00    -0.020 C 
ATOM     17  C   UNL     1      28.402 -32.203 -29.810  0.00  0.00    -0.020 C 
ATOM     18  C   UNL     1      27.235 -33.216 -29.536  0.00  0.00    -0.059 C 
ATOM     19  C   UNL     1      29.716 -32.996 -29.528  0.00  0.00    -0.022 C 
ATOM     20  C   UNL     1      30.849 -32.160 -28.910  0.00  0.00    -0.048 C 
ATOM     21  C   UNL     1      32.160 -32.929 -28.805  0.00  0.00    -0.049 C 
ATOM     22  C   UNL     1      32.694 -33.265 -30.206  0.00  0.00    -0.026 C 
ATOM     23  C   UNL     1      34.101 -33.968 -30.210  0.00  0.00    +0.009 C 
ATOM     24  C   UNL     1      35.140 -33.014 -29.558  0.00  0.00    -0.056 C 
ATOM     25  C   UNL     1      34.089 -35.306 -29.450  0.00  0.00    +0.018 C 
ATOM     26  N   UNL     1      35.343 -35.994 -29.642  0.00  0.00    -0.332 N 
ATOM     27  H   UNL     1      36.356 -34.994 -32.555  0.00  0.00    +0.000 HD
ATOM     28  H   UNL     1      35.697 -36.559 -28.918  0.00  0.00    +0.000 HD
ENDROOT
BRANCH   1  29
ATOM     29  C   UNL     1      37.304 -36.751 -30.950  0.00  0.00    +0.011 C 
ATOM     30  C   UNL     1      38.565 -35.889 -30.968  0.00  0.00    -0.056 C 
BRANCH  29  32
ATOM     31  C   UNL     1      38.609 -37.831 -29.041  0.00  0.00    -0.065 C 
ATOM     32  C   UNL     1      37.308 -37.800 -29.829  0.00  0.00    -0.047 C 
ENDBRANCH  29  32
ENDBRANCH   1  29
BRANCH  14  33
ATOM     33  C   UNL     1      26.770 -29.573 -32.294  0.00  0.00    +0.013 C 
ATOM     34  C   UNL     1      26.554 -30.343 -33.624  0.00  0.00    -0.049 C 
BRANCH  33  35
ATOM     35  N   UNL     1      27.705 -28.431 -32.491  0.00  0.00    -0.305 N 
ATOM     36  C   UNL     1      28.244 -28.346 -33.856  0.00  0.00    -0.013 C 
ATOM     37  C   UNL     1      27.097 -27.135 -32.178  0.00  0.00    -0.013 C 
ATOM     38  H   UNL     1      28.464 -28.628 -31.838  0.00  0.00    +0.000 HD
ENDBRANCH  33  35
ENDBRANCH  14  33
BRANCH  15  39
ATOM     39  O   UNL     1      26.967 -28.856 -29.399  0.00  0.00    -0.391 OA
ATOM     40  H   UNL     1      26.163 -28.636 -28.904  0.00  0.00    +0.000 HD
ENDBRANCH  15  39
TORSDOF 5
ENDMDL
MODEL 11
REMARK VINA RESULT:    -6.559      2.545      9.082
REMARK INTER + INTRA:          -8.670
REMARK INTER:                  -8.193
REMARK INTRA:                  -0.477
REMARK UNBOUND:                -0.385
REMARK  Name = cpd86.pdb
REMARK  13 active torsions:
REMARK  status: ('A' for Active; 'I' for Inactive)
REMARK    1  A    between atoms: C_1  and  C_2
REMARK    2  A    between atoms: C_2  and  C_3
REMARK    3  A    between atoms: C_3  and  C_4
REMARK    4  A    between atoms: C_3  and  C_5
REMARK    5  A    between atoms: C_16  and  C_17
REMARK    6  A    between atoms: C_18  and  C_19
REMARK    7  A    between atoms: C_19  and  C_20
REMARK    8  A    between atoms: C_19  and  N_21
REMARK    9  A    between atoms: N_21  and  C_22
REMARK   10  A    between atoms: N_21  and  C_23
REMARK   11  A    between atoms: C_24  and  O_25
REMARK   12  A    between atoms: C_27  and  C_28
REMARK   13  A    between atoms: C_33  and  C_34
REMARK                            x       y       z     vdW  Elec       q    Type
REMARK                         _______ _______ _______ _____ _____    ______ ____
ROOT
ATOM      1  C   UNL     1      35.452 -38.057 -30.137  0.00  0.00    +0.093 C 
ATOM      2  N   UNL     1      34.727 -37.875 -31.187  0.00  0.00    -0.269 N 
ATOM      3  C   UNL     1      33.863 -36.683 -31.258  0.00  0.00    +0.060 C 
ATOM      4  C   UNL     1      32.443 -37.131 -30.887  0.00  0.00    -0.029 C 
ATOM      5  C   UNL     1      31.455 -35.972 -30.914  0.00  0.00    -0.044 C 
ATOM      6  C   UNL     1      31.917 -34.853 -29.996  0.00  0.00    -0.012 C 
ATOM      7  C   UNL     1      31.527 -34.937 -28.544  0.00  0.00    -0.033 C 
ATOM      8  C   UNL     1      30.870 -33.858 -29.415  0.00  0.00    +0.039 C 
ATOM      9  C   UNL     1      29.378 -34.096 -29.693  0.00  0.00    +0.141 C 
ATOM     10  O   UNL     1      28.826 -35.121 -29.297  0.00  0.00    -0.297 OA
ATOM     11  C   UNL     1      28.574 -33.034 -30.423  0.00  0.00    +0.013 C 
ATOM     12  C   UNL     1      29.344 -31.727 -30.641  0.00  0.00    -0.013 C 
ATOM     13  C   UNL     1      30.222 -31.942 -31.896  0.00  0.00    -0.058 C 
ATOM     14  C   UNL     1      28.434 -30.440 -30.789  0.00  0.00    +0.007 C 
ATOM     15  C   UNL     1      29.249 -29.285 -30.124  0.00  0.00    +0.061 C 
ATOM     16  C   UNL     1      30.544 -29.924 -29.593  0.00  0.00    -0.020 C 
ATOM     17  C   UNL     1      30.163 -31.395 -29.331  0.00  0.00    -0.020 C 
ATOM     18  C   UNL     1      29.297 -31.418 -28.021  0.00  0.00    -0.059 C 
ATOM     19  C   UNL     1      31.323 -32.407 -29.080  0.00  0.00    -0.022 C 
ATOM     20  C   UNL     1      32.667 -32.010 -29.713  0.00  0.00    -0.048 C 
ATOM     21  C   UNL     1      33.724 -33.101 -29.585  0.00  0.00    -0.049 C 
ATOM     22  C   UNL     1      33.309 -34.341 -30.391  0.00  0.00    -0.026 C 
ATOM     23  C   UNL     1      34.385 -35.488 -30.411  0.00  0.00    +0.009 C 
ATOM     24  C   UNL     1      35.683 -34.946 -31.072  0.00  0.00    -0.056 C 
ATOM     25  C   UNL     1      34.709 -36.011 -29.001  0.00  0.00    +0.018 C 
ATOM     26  N   UNL     1      35.552 -37.179 -29.090  0.00  0.00    -0.332 N 
ATOM     27  H   UNL     1      34.750 -38.521 -31.930  0.00  0.00    +0.000 HD
ATOM     28  H   UNL     1      36.215 -37.349 -28.381  0.00  0.00    +0.000 HD
ENDROOT
BRANCH   1  29
ATOM     29  C   UNL     1      36.309 -39.326 -30.063  0.00  0.00    +0.011 C 
ATOM     30  C   UNL     1      36.973 -39.451 -28.693  0.00  0.00    -0.056 C 
BRANCH  29  32
ATOM     31  C   UNL     1      34.893 -41.267 -29.201  0.00  0.00    -0.065 C 
ATOM     32  C   UNL     1      35.436 -40.538 -30.421  0.00  0.00    -0.047 C 
ENDBRANCH  29  32
ENDBRANCH   1  29
BRANCH  14  33
ATOM     33  C   UNL     1      27.609 -30.135 -32.096  0.00  0.00    +0.013 C 
ATOM     34  C   UNL     1      26.360 -29.317 -31.669  0.00  0.00    -0.049 C 
BRANCH  33  35
ATOM     35  N   UNL     1      27.220 -31.267 -32.982  0.00  0.00    -0.305 N 
ATOM     36  C   UNL     1      25.807 -31.651 -32.853  0.00  0.00    -0.013 C 
ATOM     37  C   UNL     1      27.473 -30.994 -34.400  0.00  0.00    -0.013 C 
ATOM     38  H   UNL     1      27.811 -32.035 -32.663  0.00  0.00    +0.000 HD
ENDBRANCH  33  35
ENDBRANCH  14  33
BRANCH  15  39
ATOM     39  O   UNL     1      29.518 -28.158 -30.924  0.00  0.00    -0.391 OA
ATOM     40  H   UNL     1      29.718 -28.443 -31.829  0.00  0.00    +0.000 HD
ENDBRANCH  15  39
TORSDOF 5
ENDMDL
MODEL 12
REMARK VINA RESULT:    -6.538     16.121     18.728
REMARK INTER + INTRA:          -8.643
REMARK INTER:                  -8.199
REMARK INTRA:                  -0.443
REMARK UNBOUND:                -0.385
REMARK  Name = cpd86.pdb
REMARK  13 active torsions:
REMARK  status: ('A' for Active; 'I' for Inactive)
REMARK    1  A    between atoms: C_1  and  C_2
REMARK    2  A    between atoms: C_2  and  C_3
REMARK    3  A    between atoms: C_3  and  C_4
REMARK    4  A    between atoms: C_3  and  C_5
REMARK    5  A    between atoms: C_16  and  C_17
REMARK    6  A    between atoms: C_18  and  C_19
REMARK    7  A    between atoms: C_19  and  C_20
REMARK    8  A    between atoms: C_19  and  N_21
REMARK    9  A    between atoms: N_21  and  C_22
REMARK   10  A    between atoms: N_21  and  C_23
REMARK   11  A    between atoms: C_24  and  O_25
REMARK   12  A    between atoms: C_27  and  C_28
REMARK   13  A    between atoms: C_33  and  C_34
REMARK                            x       y       z     vdW  Elec       q    Type
REMARK                         _______ _______ _______ _____ _____    ______ ____
ROOT
ATOM      1  C   UNL     1      35.094 -18.810 -33.473  0.00  0.00    +0.093 C 
ATOM      2  N   UNL     1      35.499 -19.356 -34.568  0.00  0.00    -0.269 N 
ATOM      3  C   UNL     1      36.946 -19.501 -34.799  0.00  0.00    +0.060 C 
ATOM      4  C   UNL     1      37.376 -18.353 -35.722  0.00  0.00    -0.029 C 
ATOM      5  C   UNL     1      38.868 -18.393 -36.024  0.00  0.00    -0.044 C 
ATOM      6  C   UNL     1      39.675 -18.370 -34.737  0.00  0.00    -0.012 C 
ATOM      7  C   UNL     1      39.997 -17.026 -34.140  0.00  0.00    -0.033 C 
ATOM      8  C   UNL     1      41.139 -17.842 -34.761  0.00  0.00    +0.039 C 
ATOM      9  C   UNL     1      41.699 -17.250 -36.064  0.00  0.00    +0.141 C 
ATOM     10  O   UNL     1      41.186 -16.251 -36.566  0.00  0.00    -0.297 OA
ATOM     11  C   UNL     1      42.923 -17.880 -36.706  0.00  0.00    +0.013 C 
ATOM     12  C   UNL     1      43.579 -18.961 -35.842  0.00  0.00    -0.013 C 
ATOM     13  C   UNL     1      42.772 -20.259 -36.080  0.00  0.00    -0.058 C 
ATOM     14  C   UNL     1      45.122 -19.185 -36.119  0.00  0.00    +0.007 C 
ATOM     15  C   UNL     1      45.738 -19.542 -34.729  0.00  0.00    +0.061 C 
ATOM     16  C   UNL     1      44.583 -19.476 -33.717  0.00  0.00    -0.020 C 
ATOM     17  C   UNL     1      43.588 -18.475 -34.339  0.00  0.00    -0.020 C 
ATOM     18  C   UNL     1      44.197 -17.041 -34.142  0.00  0.00    -0.059 C 
ATOM     19  C   UNL     1      42.155 -18.406 -33.726  0.00  0.00    -0.022 C 
ATOM     20  C   UNL     1      41.691 -19.699 -33.036  0.00  0.00    -0.048 C 
ATOM     21  C   UNL     1      40.232 -19.644 -32.599  0.00  0.00    -0.049 C 
ATOM     22  C   UNL     1      39.312 -19.550 -33.826  0.00  0.00    -0.026 C 
ATOM     23  C   UNL     1      37.777 -19.594 -33.488  0.00  0.00    +0.009 C 
ATOM     24  C   UNL     1      37.455 -20.948 -32.796  0.00  0.00    -0.056 C 
ATOM     25  C   UNL     1      37.346 -18.437 -32.570  0.00  0.00    +0.018 C 
ATOM     26  N   UNL     1      35.909 -18.415 -32.444  0.00  0.00    -0.332 N 
ATOM     27  H   UNL     1      34.851 -19.671 -35.240  0.00  0.00    +0.000 HD
ATOM     28  H   UNL     1      35.504 -18.110 -31.600  0.00  0.00    +0.000 HD
ENDROOT
BRANCH   1  29
ATOM     29  C   UNL     1      33.585 -18.626 -33.273  0.00  0.00    +0.011 C 
ATOM     30  C   UNL     1      33.095 -19.442 -32.077  0.00  0.00    -0.056 C 
BRANCH  29  32
ATOM     31  C   UNL     1      32.652 -16.756 -31.808  0.00  0.00    -0.065 C 
ATOM     32  C   UNL     1      33.278 -17.127 -33.144  0.00  0.00    -0.047 C 
ENDBRANCH  29  32
ENDBRANCH   1  29
BRANCH  14  33
ATOM     33  C   UNL     1      45.649 -19.934 -37.401  0.00  0.00    +0.013 C 
ATOM     34  C   UNL     1      47.115 -19.476 -37.628  0.00  0.00    -0.049 C 
BRANCH  33  35
ATOM     35  N   UNL     1      44.866 -19.839 -38.664  0.00  0.00    -0.305 N 
ATOM     36  C   UNL     1      45.255 -18.701 -39.509  0.00  0.00    -0.013 C 
ATOM     37  C   UNL     1      44.960 -21.049 -39.486  0.00  0.00    -0.013 C 
ATOM     38  H   UNL     1      43.907 -19.709 -38.341  0.00  0.00    +0.000 HD
ENDBRANCH  33  35
ENDBRANCH  14  33
BRANCH  15  39
ATOM     39  O   UNL     1      46.437 -20.761 -34.640  0.00  0.00    -0.391 OA
ATOM     40  H   UNL     1      46.120 -21.259 -33.871  0.00  0.00    +0.000 HD
ENDBRANCH  15  39
TORSDOF 5
ENDMDL
MODEL 13
REMARK VINA RESULT:    -6.537     15.428     18.323
REMARK INTER + INTRA:          -8.642
REMARK INTER:                  -8.307
REMARK INTRA:                  -0.335
REMARK UNBOUND:                -0.385
REMARK  Name = cpd86.pdb
REMARK  13 active torsions:
REMARK  status: ('A' for Active; 'I' for Inactive)
REMARK    1  A    between atoms: C_1  and  C_2
REMARK    2  A    between atoms: C_2  and  C_3
REMARK    3  A    between atoms: C_3  and  C_4
REMARK    4  A    between atoms: C_3  and  C_5
REMARK    5  A    between atoms: C_16  and  C_17
REMARK    6  A    between atoms: C_18  and  C_19
REMARK    7  A    between atoms: C_19  and  C_20
REMARK    8  A    between atoms: C_19  and  N_21
REMARK    9  A    between atoms: N_21  and  C_22
REMARK   10  A    between atoms: N_21  and  C_23
REMARK   11  A    between atoms: C_24  and  O_25
REMARK   12  A    between atoms: C_27  and  C_28
REMARK   13  A    between atoms: C_33  and  C_34
REMARK                            x       y       z     vdW  Elec       q    Type
REMARK                         _______ _______ _______ _____ _____    ______ ____
ROOT
ATOM      1  C   UNL     1      36.081 -13.686 -31.426  0.00  0.00    +0.093 C 
ATOM      2  N   UNL     1      36.658 -13.650 -32.578  0.00  0.00    -0.269 N 
ATOM      3  C   UNL     1      37.206 -14.897 -33.139  0.00  0.00    +0.060 C 
ATOM      4  C   UNL     1      38.716 -14.891 -32.867  0.00  0.00    -0.029 C 
ATOM      5  C   UNL     1      39.395 -16.147 -33.396  0.00  0.00    -0.044 C 
ATOM      6  C   UNL     1      38.752 -17.391 -32.807  0.00  0.00    -0.012 C 
ATOM      7  C   UNL     1      39.263 -17.874 -31.475  0.00  0.00    -0.033 C 
ATOM      8  C   UNL     1      39.575 -18.711 -32.723  0.00  0.00    +0.039 C 
ATOM      9  C   UNL     1      41.055 -18.697 -33.136  0.00  0.00    +0.141 C 
ATOM     10  O   UNL     1      41.864 -17.994 -32.532  0.00  0.00    -0.297 OA
ATOM     11  C   UNL     1      41.524 -19.594 -34.268  0.00  0.00    +0.013 C 
ATOM     12  C   UNL     1      40.452 -20.572 -34.757  0.00  0.00    -0.013 C 
ATOM     13  C   UNL     1      39.555 -19.782 -35.739  0.00  0.00    -0.058 C 
ATOM     14  C   UNL     1      41.016 -21.892 -35.428  0.00  0.00    +0.007 C 
ATOM     15  C   UNL     1      40.003 -23.014 -35.034  0.00  0.00    +0.061 C 
ATOM     16  C   UNL     1      38.943 -22.344 -34.145  0.00  0.00    -0.020 C 
ATOM     17  C   UNL     1      39.681 -21.151 -33.505  0.00  0.00    -0.020 C 
ATOM     18  C   UNL     1      40.627 -21.737 -32.397  0.00  0.00    -0.059 C 
ATOM     19  C   UNL     1      38.818 -20.069 -32.784  0.00  0.00    -0.022 C 
ATOM     20  C   UNL     1      37.374 -19.957 -33.299  0.00  0.00    -0.048 C 
ATOM     21  C   UNL     1      36.619 -18.783 -32.686  0.00  0.00    -0.049 C 
ATOM     22  C   UNL     1      37.253 -17.455 -33.125  0.00  0.00    -0.026 C 
ATOM     23  C   UNL     1      36.482 -16.176 -32.631  0.00  0.00    +0.009 C 
ATOM     24  C   UNL     1      35.046 -16.197 -33.223  0.00  0.00    -0.056 C 
ATOM     25  C   UNL     1      36.402 -16.098 -31.096  0.00  0.00    +0.018 C 
ATOM     26  N   UNL     1      35.856 -14.823 -30.695  0.00  0.00    -0.332 N 
ATOM     27  H   UNL     1      36.731 -12.802 -33.075  0.00  0.00    +0.000 HD
ATOM     28  H   UNL     1      35.309 -14.770 -29.878  0.00  0.00    +0.000 HD
ENDROOT
BRANCH   1  29
ATOM     29  C   UNL     1      35.558 -12.369 -30.839  0.00  0.00    +0.011 C 
ATOM     30  C   UNL     1      34.730 -12.629 -29.581  0.00  0.00    -0.056 C 
BRANCH  29  32
ATOM     31  C   UNL     1      37.668 -11.903 -29.481  0.00  0.00    -0.065 C 
ATOM     32  C   UNL     1      36.746 -11.427 -30.593  0.00  0.00    -0.047 C 
ENDBRANCH  29  32
ENDBRANCH   1  29
BRANCH  14  33
ATOM     33  C   UNL     1      41.641 -21.903 -36.874  0.00  0.00    +0.013 C 
ATOM     34  C   UNL     1      42.862 -20.945 -36.851  0.00  0.00    -0.049 C 
BRANCH  33  35
ATOM     35  N   UNL     1      40.762 -21.609 -38.040  0.00  0.00    -0.305 N 
ATOM     36  C   UNL     1      41.133 -20.381 -38.757  0.00  0.00    -0.013 C 
ATOM     37  C   UNL     1      40.733 -22.699 -39.020  0.00  0.00    -0.013 C 
ATOM     38  H   UNL     1      39.839 -21.492 -37.620  0.00  0.00    +0.000 HD
ENDBRANCH  33  35
ENDBRANCH  14  33
BRANCH  15  39
ATOM     39  O   UNL     1      39.413 -23.734 -36.091  0.00  0.00    -0.391 OA
ATOM     40  H   UNL     1      39.760 -23.410 -36.936  0.00  0.00    +0.000 HD
ENDBRANCH  15  39
TORSDOF 5
ENDMDL
MODEL 14
REMARK VINA RESULT:    -6.526     18.832     22.165
REMARK INTER + INTRA:          -8.628
REMARK INTER:                  -8.412
REMARK INTRA:                  -0.217
REMARK UNBOUND:                -0.385
REMARK  Name = cpd86.pdb
REMARK  13 active torsions:
REMARK  status: ('A' for Active; 'I' for Inactive)
REMARK    1  A    between atoms: C_1  and  C_2
REMARK    2  A    between atoms: C_2  and  C_3
REMARK    3  A    between atoms: C_3  and  C_4
REMARK    4  A    between atoms: C_3  and  C_5
REMARK    5  A    between atoms: C_16  and  C_17
REMARK    6  A    between atoms: C_18  and  C_19
REMARK    7  A    between atoms: C_19  and  C_20
REMARK    8  A    between atoms: C_19  and  N_21
REMARK    9  A    between atoms: N_21  and  C_22
REMARK   10  A    between atoms: N_21  and  C_23
REMARK   11  A    between atoms: C_24  and  O_25
REMARK   12  A    between atoms: C_27  and  C_28
REMARK   13  A    between atoms: C_33  and  C_34
REMARK                            x       y       z     vdW  Elec       q    Type
REMARK                         _______ _______ _______ _____ _____    ______ ____
ROOT
ATOM      1  C   UNL     1      47.328 -21.267 -40.653  0.00  0.00    +0.093 C 
ATOM      2  N   UNL     1      46.640 -21.869 -39.745  0.00  0.00    -0.269 N 
ATOM      3  C   UNL     1      45.599 -21.116 -39.024  0.00  0.00    +0.060 C 
ATOM      4  C   UNL     1      46.196 -20.692 -37.676  0.00  0.00    -0.029 C 
ATOM      5  C   UNL     1      45.207 -19.890 -36.841  0.00  0.00    -0.044 C 
ATOM      6  C   UNL     1      44.718 -18.676 -37.611  0.00  0.00    -0.012 C 
ATOM      7  C   UNL     1      45.549 -17.422 -37.535  0.00  0.00    -0.033 C 
ATOM      8  C   UNL     1      44.185 -17.438 -36.831  0.00  0.00    +0.039 C 
ATOM      9  C   UNL     1      44.269 -17.429 -35.297  0.00  0.00    +0.141 C 
ATOM     10  O   UNL     1      45.361 -17.486 -34.732  0.00  0.00    -0.297 OA
ATOM     11  C   UNL     1      42.996 -17.301 -34.479  0.00  0.00    +0.013 C 
ATOM     12  C   UNL     1      41.753 -17.006 -35.324  0.00  0.00    -0.013 C 
ATOM     13  C   UNL     1      41.272 -18.366 -35.883  0.00  0.00    -0.058 C 
ATOM     14  C   UNL     1      40.590 -16.258 -34.553  0.00  0.00    +0.007 C 
ATOM     15  C   UNL     1      39.933 -15.321 -35.616  0.00  0.00    +0.061 C 
ATOM     16  C   UNL     1      40.733 -15.516 -36.914  0.00  0.00    -0.020 C 
ATOM     17  C   UNL     1      42.133 -15.951 -36.437  0.00  0.00    -0.020 C 
ATOM     18  C   UNL     1      42.846 -14.670 -35.875  0.00  0.00    -0.059 C 
ATOM     19  C   UNL     1      43.110 -16.536 -37.504  0.00  0.00    -0.022 C 
ATOM     20  C   UNL     1      42.421 -17.183 -38.716  0.00  0.00    -0.048 C 
ATOM     21  C   UNL     1      43.403 -17.885 -39.648  0.00  0.00    -0.049 C 
ATOM     22  C   UNL     1      44.053 -19.079 -38.934  0.00  0.00    -0.026 C 
ATOM     23  C   UNL     1      45.006 -19.936 -39.845  0.00  0.00    +0.009 C 
ATOM     24  C   UNL     1      44.179 -20.522 -41.023  0.00  0.00    -0.056 C 
ATOM     25  C   UNL     1      46.179 -19.111 -40.405  0.00  0.00    +0.018 C 
ATOM     26  N   UNL     1      47.118 -19.979 -41.074  0.00  0.00    -0.332 N 
ATOM     27  H   UNL     1      46.807 -22.817 -39.536  0.00  0.00    +0.000 HD
ATOM     28  H   UNL     1      47.619 -19.639 -41.850  0.00  0.00    +0.000 HD
ENDROOT
BRANCH   1  29
ATOM     29  C   UNL     1      48.438 -22.055 -41.360  0.00  0.00    +0.011 C 
ATOM     30  C   UNL     1      49.600 -22.324 -40.406  0.00  0.00    -0.056 C 
BRANCH  29  32
ATOM     31  C   UNL     1      46.550 -23.095 -42.726  0.00  0.00    -0.065 C 
ATOM     32  C   UNL     1      47.837 -23.338 -41.953  0.00  0.00    -0.047 C 
ENDBRANCH  29  32
ENDBRANCH   1  29
BRANCH  14  33
ATOM     33  C   UNL     1      39.666 -16.987 -33.506  0.00  0.00    +0.013 C 
ATOM     34  C   UNL     1      39.961 -16.357 -32.118  0.00  0.00    -0.049 C 
BRANCH  33  35
ATOM     35  N   UNL     1      39.701 -18.474 -33.427  0.00  0.00    -0.305 N 
ATOM     36  C   UNL     1      40.280 -18.980 -32.175  0.00  0.00    -0.013 C 
ATOM     37  C   UNL     1      38.376 -19.084 -33.577  0.00  0.00    -0.013 C 
ATOM     38  H   UNL     1      40.298 -18.741 -34.210  0.00  0.00    +0.000 HD
ENDBRANCH  33  35
ENDBRANCH  14  33
BRANCH  15  39
ATOM     39  O   UNL     1      38.551 -15.477 -35.830  0.00  0.00    -0.391 OA
ATOM     40  H   UNL     1      38.076 -15.339 -34.996  0.00  0.00    +0.000 HD
ENDBRANCH  15  39
TORSDOF 5
ENDMDL
MODEL 15
REMARK VINA RESULT:    -6.514      1.674      2.474
REMARK INTER + INTRA:          -8.613
REMARK INTER:                  -8.084
REMARK INTRA:                  -0.529
REMARK UNBOUND:                -0.385
REMARK  Name = cpd86.pdb
REMARK  13 active torsions:
REMARK  status: ('A' for Active; 'I' for Inactive)
REMARK    1  A    between atoms: C_1  and  C_2
REMARK    2  A    between atoms: C_2  and  C_3
REMARK    3  A    between atoms: C_3  and  C_4
REMARK    4  A    between atoms: C_3  and  C_5
REMARK    5  A    between atoms: C_16  and  C_17
REMARK    6  A    between atoms: C_18  and  C_19
REMARK    7  A    between atoms: C_19  and  C_20
REMARK    8  A    between atoms: C_19  and  N_21
REMARK    9  A    between atoms: N_21  and  C_22
REMARK   10  A    between atoms: N_21  and  C_23
REMARK   11  A    between atoms: C_24  and  O_25
REMARK   12  A    between atoms: C_27  and  C_28
REMARK   13  A    between atoms: C_33  and  C_34
REMARK                            x       y       z     vdW  Elec       q    Type
REMARK                         _______ _______ _______ _____ _____    ______ ____
ROOT
ATOM      1  C   UNL     1      28.137 -29.773 -29.764  0.00  0.00    +0.093 C 
ATOM      2  N   UNL     1      28.300 -30.638 -28.823  0.00  0.00    -0.269 N 
ATOM      3  C   UNL     1      29.453 -31.554 -28.889  0.00  0.00    +0.060 C 
ATOM      4  C   UNL     1      28.938 -32.892 -29.437  0.00  0.00    -0.029 C 
ATOM      5  C   UNL     1      30.051 -33.923 -29.562  0.00  0.00    -0.044 C 
ATOM      6  C   UNL     1      31.178 -33.391 -30.431  0.00  0.00    -0.012 C 
ATOM      7  C   UNL     1      31.058 -33.580 -31.920  0.00  0.00    -0.033 C 
ATOM      8  C   UNL     1      32.118 -34.393 -31.163  0.00  0.00    +0.039 C 
ATOM      9  C   UNL     1      31.816 -35.897 -31.081  0.00  0.00    +0.141 C 
ATOM     10  O   UNL     1      30.763 -36.348 -31.529  0.00  0.00    -0.297 OA
ATOM     11  C   UNL     1      32.851 -36.835 -30.484  0.00  0.00    +0.013 C 
ATOM     12  C   UNL     1      34.193 -36.158 -30.191  0.00  0.00    -0.013 C 
ATOM     13  C   UNL     1      34.034 -35.447 -28.826  0.00  0.00    -0.058 C 
ATOM     14  C   UNL     1      35.441 -37.134 -30.188  0.00  0.00    +0.007 C 
ATOM     15  C   UNL     1      36.622 -36.287 -30.760  0.00  0.00    +0.061 C 
ATOM     16  C   UNL     1      36.036 -34.908 -31.103  0.00  0.00    -0.020 C 
ATOM     17  C   UNL     1      34.546 -35.188 -31.386  0.00  0.00    -0.020 C 
ATOM     18  C   UNL     1      34.467 -35.870 -32.798  0.00  0.00    -0.059 C 
ATOM     19  C   UNL     1      33.583 -33.962 -31.463  0.00  0.00    -0.022 C 
ATOM     20  C   UNL     1      34.048 -32.733 -30.665  0.00  0.00    -0.048 C 
ATOM     21  C   UNL     1      33.004 -31.622 -30.631  0.00  0.00    -0.049 C 
ATOM     22  C   UNL     1      31.757 -32.087 -29.865  0.00  0.00    -0.026 C 
ATOM     23  C   UNL     1      30.659 -30.976 -29.682  0.00  0.00    +0.009 C 
ATOM     24  C   UNL     1      31.267 -29.802 -28.865  0.00  0.00    -0.056 C 
ATOM     25  C   UNL     1      30.134 -30.445 -31.027  0.00  0.00    +0.018 C 
ATOM     26  N   UNL     1      29.006 -29.571 -30.805  0.00  0.00    -0.332 N 
ATOM     27  H   UNL     1      27.665 -30.687 -28.072  0.00  0.00    +0.000 HD
ATOM     28  H   UNL     1      28.857 -28.813 -31.416  0.00  0.00    +0.000 HD
ENDROOT
BRANCH   1  29
ATOM     29  C   UNL     1      26.907 -28.860 -29.701  0.00  0.00    +0.011 C 
ATOM     30  C   UNL     1      25.621 -29.677 -29.819  0.00  0.00    -0.056 C 
BRANCH  29  32
ATOM     31  C   UNL     1      28.063 -26.964 -28.443  0.00  0.00    -0.065 C 
ATOM     32  C   UNL     1      26.973 -28.025 -28.414  0.00  0.00    -0.047 C 
ENDBRANCH  29  32
ENDBRANCH   1  29
BRANCH  14  33
ATOM     33  C   UNL     1      35.725 -38.138 -29.007  0.00  0.00    +0.013 C 
ATOM     34  C   UNL     1      36.604 -39.282 -29.581  0.00  0.00    -0.049 C 
BRANCH  33  35
ATOM     35  N   UNL     1      34.574 -38.691 -28.240  0.00  0.00    -0.305 N 
ATOM     36  C   UNL     1      34.403 -40.141 -28.407  0.00  0.00    -0.013 C 
ATOM     37  C   UNL     1      34.666 -38.422 -26.802  0.00  0.00    -0.013 C 
ATOM     38  H   UNL     1      33.768 -38.206 -28.635  0.00  0.00    +0.000 HD
ENDBRANCH  33  35
ENDBRANCH  14  33
BRANCH  15  39
ATOM     39  O   UNL     1      37.771 -36.176 -29.953  0.00  0.00    -0.391 OA
ATOM     40  H   UNL     1      37.659 -35.439 -29.332  0.00  0.00    +0.000 HD
ENDBRANCH  15  39
TORSDOF 5
ENDMDL
MODEL 16
REMARK VINA RESULT:    -6.493     17.964     21.322
REMARK INTER + INTRA:          -8.587
REMARK INTER:                  -8.327
REMARK INTRA:                  -0.260
REMARK UNBOUND:                -0.385
REMARK  Name = cpd86.pdb
REMARK  13 active torsions:
REMARK  status: ('A' for Active; 'I' for Inactive)
REMARK    1  A    between atoms: C_1  and  C_2
REMARK    2  A    between atoms: C_2  and  C_3
REMARK    3  A    between atoms: C_3  and  C_4
REMARK    4  A    between atoms: C_3  and  C_5
REMARK    5  A    between atoms: C_16  and  C_17
REMARK    6  A    between atoms: C_18  and  C_19
REMARK    7  A    between atoms: C_19  and  C_20
REMARK    8  A    between atoms: C_19  and  N_21
REMARK    9  A    between atoms: N_21  and  C_22
REMARK   10  A    between atoms: N_21  and  C_23
REMARK   11  A    between atoms: C_24  and  O_25
REMARK   12  A    between atoms: C_27  and  C_28
REMARK   13  A    between atoms: C_33  and  C_34
REMARK                            x       y       z     vdW  Elec       q    Type
REMARK                         _______ _______ _______ _____ _____    ______ ____
ROOT
ATOM      1  C   UNL     1      46.579 -21.147 -40.857  0.00  0.00    +0.093 C 
ATOM      2  N   UNL     1      46.174 -21.809 -39.828  0.00  0.00    -0.269 N 
ATOM      3  C   UNL     1      45.093 -21.247 -39.000  0.00  0.00    +0.060 C 
ATOM      4  C   UNL     1      45.750 -20.592 -37.778  0.00  0.00    -0.029 C 
ATOM      5  C   UNL     1      44.723 -19.962 -36.848  0.00  0.00    -0.044 C 
ATOM      6  C   UNL     1      43.870 -18.953 -37.598  0.00  0.00    -0.012 C 
ATOM      7  C   UNL     1      44.392 -17.544 -37.708  0.00  0.00    -0.033 C 
ATOM      8  C   UNL     1      43.174 -17.804 -36.811  0.00  0.00    +0.039 C 
ATOM      9  C   UNL     1      43.456 -17.649 -35.308  0.00  0.00    +0.141 C 
ATOM     10  O   UNL     1      44.596 -17.416 -34.908  0.00  0.00    -0.297 OA
ATOM     11  C   UNL     1      42.308 -17.738 -34.318  0.00  0.00    +0.013 C 
ATOM     12  C   UNL     1      40.930 -17.796 -34.985  0.00  0.00    -0.013 C 
ATOM     13  C   UNL     1      40.705 -19.270 -35.397  0.00  0.00    -0.058 C 
ATOM     14  C   UNL     1      39.738 -17.261 -34.088  0.00  0.00    +0.007 C 
ATOM     15  C   UNL     1      38.749 -16.583 -35.089  0.00  0.00    +0.061 C 
ATOM     16  C   UNL     1      39.393 -16.704 -36.480  0.00  0.00    -0.020 C 
ATOM     17  C   UNL     1      40.906 -16.779 -36.193  0.00  0.00    -0.020 C 
ATOM     18  C   UNL     1      41.372 -15.329 -35.808  0.00  0.00    -0.059 C 
ATOM     19  C   UNL     1      41.841 -17.219 -37.361  0.00  0.00    -0.022 C 
ATOM     20  C   UNL     1      41.165 -18.101 -38.424  0.00  0.00    -0.048 C 
ATOM     21  C   UNL     1      42.150 -18.643 -39.454  0.00  0.00    -0.049 C 
ATOM     22  C   UNL     1      43.146 -19.601 -38.785  0.00  0.00    -0.026 C 
ATOM     23  C   UNL     1      44.142 -20.299 -39.783  0.00  0.00    +0.009 C 
ATOM     24  C   UNL     1      43.323 -21.148 -40.795  0.00  0.00    -0.056 C 
ATOM     25  C   UNL     1      45.008 -19.285 -40.551  0.00  0.00    +0.018 C 
ATOM     26  N   UNL     1      46.024 -19.977 -41.306  0.00  0.00    -0.332 N 
ATOM     27  H   UNL     1      46.582 -22.675 -39.598  0.00  0.00    +0.000 HD
ATOM     28  H   UNL     1      46.326 -19.599 -42.165  0.00  0.00    +0.000 HD
ENDROOT
BRANCH   1  29
ATOM     29  C   UNL     1      47.737 -21.726 -41.679  0.00  0.00    +0.011 C 
ATOM     30  C   UNL     1      48.941 -22.019 -40.785  0.00  0.00    -0.056 C 
BRANCH  29  32
ATOM     31  C   UNL     1      48.239 -24.108 -42.444  0.00  0.00    -0.065 C 
ATOM     32  C   UNL     1      47.237 -22.963 -42.439  0.00  0.00    -0.047 C 
ENDBRANCH  29  32
ENDBRANCH   1  29
BRANCH  14  33
ATOM     33  C   UNL     1      39.154 -18.087 -32.881  0.00  0.00    +0.013 C 
ATOM     34  C   UNL     1      40.322 -18.336 -31.889  0.00  0.00    -0.049 C 
BRANCH  33  35
ATOM     35  N   UNL     1      38.422 -19.354 -33.162  0.00  0.00    -0.305 N 
ATOM     36  C   UNL     1      39.056 -20.539 -32.568  0.00  0.00    -0.013 C 
ATOM     37  C   UNL     1      37.031 -19.322 -32.702  0.00  0.00    -0.013 C 
ATOM     38  H   UNL     1      38.453 -19.426 -34.179  0.00  0.00    +0.000 HD
ENDBRANCH  33  35
ENDBRANCH  14  33
BRANCH  15  39
ATOM     39  O   UNL     1      37.423 -17.058 -35.088  0.00  0.00    -0.391 OA
ATOM     40  H   UNL     1      36.871 -16.476 -35.634  0.00  0.00    +0.000 HD
ENDBRANCH  15  39
TORSDOF 5
ENDMDL
MODEL 17
REMARK VINA RESULT:    -6.313      3.434     10.133
REMARK INTER + INTRA:          -8.359
REMARK INTER:                  -8.003
REMARK INTRA:                  -0.356
REMARK UNBOUND:                -0.385
REMARK  Name = cpd86.pdb
REMARK  13 active torsions:
REMARK  status: ('A' for Active; 'I' for Inactive)
REMARK    1  A    between atoms: C_1  and  C_2
REMARK    2  A    between atoms: C_2  and  C_3
REMARK    3  A    between atoms: C_3  and  C_4
REMARK    4  A    between atoms: C_3  and  C_5
REMARK    5  A    between atoms: C_16  and  C_17
REMARK    6  A    between atoms: C_18  and  C_19
REMARK    7  A    between atoms: C_19  and  C_20
REMARK    8  A    between atoms: C_19  and  N_21
REMARK    9  A    between atoms: N_21  and  C_22
REMARK   10  A    between atoms: N_21  and  C_23
REMARK   11  A    between atoms: C_24  and  O_25
REMARK   12  A    between atoms: C_27  and  C_28
REMARK   13  A    between atoms: C_33  and  C_34
REMARK                            x       y       z     vdW  Elec       q    Type
REMARK                         _______ _______ _______ _____ _____    ______ ____
ROOT
ATOM      1  C   UNL     1      34.192 -34.922 -30.495  0.00  0.00    +0.093 C 
ATOM      2  N   UNL     1      34.430 -33.713 -30.116  0.00  0.00    -0.269 N 
ATOM      3  C   UNL     1      33.296 -32.843 -29.758  0.00  0.00    +0.060 C 
ATOM      4  C   UNL     1      33.011 -31.946 -30.969  0.00  0.00    -0.029 C 
ATOM      5  C   UNL     1      31.841 -31.004 -30.718  0.00  0.00    -0.044 C 
ATOM      6  C   UNL     1      30.598 -31.786 -30.331  0.00  0.00    -0.012 C 
ATOM      7  C   UNL     1      29.728 -32.306 -31.445  0.00  0.00    -0.033 C 
ATOM      8  C   UNL     1      29.193 -31.160 -30.575  0.00  0.00    +0.039 C 
ATOM      9  C   UNL     1      29.092 -29.812 -31.305  0.00  0.00    +0.141 C 
ATOM     10  O   UNL     1      29.495 -29.697 -32.461  0.00  0.00    -0.297 OA
ATOM     11  C   UNL     1      28.447 -28.629 -30.604  0.00  0.00    +0.013 C 
ATOM     12  C   UNL     1      27.791 -28.993 -29.268  0.00  0.00    -0.013 C 
ATOM     13  C   UNL     1      28.924 -29.014 -28.216  0.00  0.00    -0.058 C 
ATOM     14  C   UNL     1      26.613 -28.031 -28.826  0.00  0.00    +0.007 C 
ATOM     15  C   UNL     1      25.590 -28.953 -28.089  0.00  0.00    +0.061 C 
ATOM     16  C   UNL     1      26.165 -30.377 -28.160  0.00  0.00    -0.020 C 
ATOM     17  C   UNL     1      27.038 -30.372 -29.431  0.00  0.00    -0.020 C 
ATOM     18  C   UNL     1      26.060 -30.417 -30.659  0.00  0.00    -0.059 C 
ATOM     19  C   UNL     1      28.019 -31.567 -29.638  0.00  0.00    -0.022 C 
ATOM     20  C   UNL     1      28.468 -32.258 -28.340  0.00  0.00    -0.048 C 
ATOM     21  C   UNL     1      29.550 -33.306 -28.573  0.00  0.00    -0.049 C 
ATOM     22  C   UNL     1      30.837 -32.640 -29.079  0.00  0.00    -0.026 C 
ATOM     23  C   UNL     1      32.051 -33.625 -29.251  0.00  0.00    +0.009 C 
ATOM     24  C   UNL     1      32.390 -34.248 -27.868  0.00  0.00    -0.056 C 
ATOM     25  C   UNL     1      31.754 -34.750 -30.258  0.00  0.00    +0.018 C 
ATOM     26  N   UNL     1      32.954 -35.509 -30.518  0.00  0.00    -0.332 N 
ATOM     27  H   UNL     1      35.354 -33.376 -30.068  0.00  0.00    +0.000 HD
ATOM     28  H   UNL     1      32.881 -36.471 -30.715  0.00  0.00    +0.000 HD
ENDROOT
BRANCH   1  29
ATOM     29  C   UNL     1      35.382 -35.796 -30.909  0.00  0.00    +0.011 C 
ATOM     30  C   UNL     1      36.659 -34.962 -31.001  0.00  0.00    -0.056 C 
BRANCH  29  32
ATOM     31  C   UNL     1      36.429 -36.684 -28.758  0.00  0.00    -0.065 C 
ATOM     32  C   UNL     1      35.501 -36.972 -29.928  0.00  0.00    -0.047 C 
ENDBRANCH  29  32
ENDBRANCH   1  29
BRANCH  14  33
ATOM     33  C   UNL     1      26.872 -26.581 -28.267  0.00  0.00    +0.013 C 
ATOM     34  C   UNL     1      26.177 -25.587 -29.235  0.00  0.00    -0.049 C 
BRANCH  33  35
ATOM     35  N   UNL     1      28.272 -26.156 -27.989  0.00  0.00    -0.305 N 
ATOM     36  C   UNL     1      28.815 -25.237 -29.000  0.00  0.00    -0.013 C 
ATOM     37  C   UNL     1      28.424 -25.511 -26.682  0.00  0.00    -0.013 C 
ATOM     38  H   UNL     1      28.796 -27.031 -28.010  0.00  0.00    +0.000 HD
ENDBRANCH  33  35
ENDBRANCH  14  33
BRANCH  15  39
ATOM     39  O   UNL     1      25.251 -28.596 -26.769  0.00  0.00    -0.391 OA
ATOM     40  H   UNL     1      25.870 -29.017 -26.152  0.00  0.00    +0.000 HD
ENDBRANCH  15  39
TORSDOF 5
ENDMDL
MODEL 18
REMARK VINA RESULT:    -6.217      2.759      9.718
REMARK INTER + INTRA:          -8.238
REMARK INTER:                  -7.885
REMARK INTRA:                  -0.353
REMARK UNBOUND:                -0.385
REMARK  Name = cpd86.pdb
REMARK  13 active torsions:
REMARK  status: ('A' for Active; 'I' for Inactive)
REMARK    1  A    between atoms: C_1  and  C_2
REMARK    2  A    between atoms: C_2  and  C_3
REMARK    3  A    between atoms: C_3  and  C_4
REMARK    4  A    between atoms: C_3  and  C_5
REMARK    5  A    between atoms: C_16  and  C_17
REMARK    6  A    between atoms: C_18  and  C_19
REMARK    7  A    between atoms: C_19  and  C_20
REMARK    8  A    between atoms: C_19  and  N_21
REMARK    9  A    between atoms: N_21  and  C_22
REMARK   10  A    between atoms: N_21  and  C_23
REMARK   11  A    between atoms: C_24  and  O_25
REMARK   12  A    between atoms: C_27  and  C_28
REMARK   13  A    between atoms: C_33  and  C_34
REMARK                            x       y       z     vdW  Elec       q    Type
REMARK                         _______ _______ _______ _____ _____    ______ ____
ROOT
ATOM      1  C   UNL     1      33.022 -44.279 -27.504  0.00  0.00    +0.093 C 
ATOM      2  N   UNL     1      32.044 -43.449 -27.381  0.00  0.00    -0.269 N 
ATOM      3  C   UNL     1      32.185 -42.094 -27.942  0.00  0.00    +0.060 C 
ATOM      4  C   UNL     1      32.553 -41.159 -26.782  0.00  0.00    -0.029 C 
ATOM      5  C   UNL     1      32.738 -39.721 -27.247  0.00  0.00    -0.044 C 
ATOM      6  C   UNL     1      33.785 -39.644 -28.345  0.00  0.00    -0.012 C 
ATOM      7  C   UNL     1      35.226 -39.522 -27.927  0.00  0.00    -0.033 C 
ATOM      8  C   UNL     1      34.550 -38.309 -28.581  0.00  0.00    +0.039 C 
ATOM      9  C   UNL     1      34.310 -37.131 -27.624  0.00  0.00    +0.141 C 
ATOM     10  O   UNL     1      34.581 -37.233 -26.428  0.00  0.00    -0.297 OA
ATOM     11  C   UNL     1      33.779 -35.818 -28.172  0.00  0.00    +0.013 C 
ATOM     12  C   UNL     1      33.716 -35.776 -29.703  0.00  0.00    -0.013 C 
ATOM     13  C   UNL     1      32.403 -36.489 -30.105  0.00  0.00    -0.058 C 
ATOM     14  C   UNL     1      33.796 -34.323 -30.328  0.00  0.00    +0.007 C 
ATOM     15  C   UNL     1      34.581 -34.499 -31.667  0.00  0.00    +0.061 C 
ATOM     16  C   UNL     1      34.955 -35.988 -31.754  0.00  0.00    -0.020 C 
ATOM     17  C   UNL     1      35.020 -36.450 -30.284  0.00  0.00    -0.020 C 
ATOM     18  C   UNL     1      36.351 -35.876 -29.682  0.00  0.00    -0.059 C 
ATOM     19  C   UNL     1      35.069 -37.986 -30.012  0.00  0.00    -0.022 C 
ATOM     20  C   UNL     1      34.439 -38.852 -31.115  0.00  0.00    -0.048 C 
ATOM     21  C   UNL     1      34.359 -40.326 -30.734  0.00  0.00    -0.049 C 
ATOM     22  C   UNL     1      33.404 -40.518 -29.547  0.00  0.00    -0.026 C 
ATOM     23  C   UNL     1      33.170 -42.020 -29.143  0.00  0.00    +0.009 C 
ATOM     24  C   UNL     1      32.534 -42.770 -30.347  0.00  0.00    -0.056 C 
ATOM     25  C   UNL     1      34.474 -42.726 -28.733  0.00  0.00    +0.018 C 
ATOM     26  N   UNL     1      34.179 -44.033 -28.196  0.00  0.00    -0.332 N 
ATOM     27  H   UNL     1      31.216 -43.716 -26.919  0.00  0.00    +0.000 HD
ATOM     28  H   UNL     1      34.824 -44.765 -28.331  0.00  0.00    +0.000 HD
ENDROOT
BRANCH   1  29
ATOM     29  C   UNL     1      32.873 -45.669 -26.872  0.00  0.00    +0.011 C 
ATOM     30  C   UNL     1      33.514 -46.736 -27.758  0.00  0.00    -0.056 C 
BRANCH  29  32
ATOM     31  C   UNL     1      32.921 -46.743 -24.558  0.00  0.00    -0.065 C 
ATOM     32  C   UNL     1      33.457 -45.636 -25.453  0.00  0.00    -0.047 C 
ENDBRANCH  29  32
ENDBRANCH   1  29
BRANCH  14  33
ATOM     33  C   UNL     1      32.586 -33.316 -30.282  0.00  0.00    +0.013 C 
ATOM     34  C   UNL     1      33.159 -31.930 -29.882  0.00  0.00    -0.049 C 
BRANCH  33  35
ATOM     35  N   UNL     1      31.398 -33.655 -29.450  0.00  0.00    -0.305 N 
ATOM     36  C   UNL     1      31.341 -32.914 -28.182  0.00  0.00    -0.013 C 
ATOM     37  C   UNL     1      30.129 -33.428 -30.148  0.00  0.00    -0.013 C 
ATOM     38  H   UNL     1      31.518 -34.650 -29.257  0.00  0.00    +0.000 HD
ENDBRANCH  33  35
ENDBRANCH  14  33
BRANCH  15  39
ATOM     39  O   UNL     1      33.940 -34.057 -32.841  0.00  0.00    -0.391 OA
ATOM     40  H   UNL     1      34.522 -33.443 -33.315  0.00  0.00    +0.000 HD
ENDBRANCH  15  39
TORSDOF 5
ENDMDL
MODEL 19
REMARK VINA RESULT:    -6.168     15.984     18.245
REMARK INTER + INTRA:          -8.175
REMARK INTER:                  -7.813
REMARK INTRA:                  -0.362
REMARK UNBOUND:                -0.385
REMARK  Name = cpd86.pdb
REMARK  13 active torsions:
REMARK  status: ('A' for Active; 'I' for Inactive)
REMARK    1  A    between atoms: C_1  and  C_2
REMARK    2  A    between atoms: C_2  and  C_3
REMARK    3  A    between atoms: C_3  and  C_4
REMARK    4  A    between atoms: C_3  and  C_5
REMARK    5  A    between atoms: C_16  and  C_17
REMARK    6  A    between atoms: C_18  and  C_19
REMARK    7  A    between atoms: C_19  and  C_20
REMARK    8  A    between atoms: C_19  and  N_21
REMARK    9  A    between atoms: N_21  and  C_22
REMARK   10  A    between atoms: N_21  and  C_23
REMARK   11  A    between atoms: C_24  and  O_25
REMARK   12  A    between atoms: C_27  and  C_28
REMARK   13  A    between atoms: C_33  and  C_34
REMARK                            x       y       z     vdW  Elec       q    Type
REMARK                         _______ _______ _______ _____ _____    ______ ____
ROOT
ATOM      1  C   UNL     1      35.239 -16.124 -31.145  0.00  0.00    +0.093 C 
ATOM      2  N   UNL     1      36.267 -15.523 -31.638  0.00  0.00    -0.269 N 
ATOM      3  C   UNL     1      37.056 -16.201 -32.681  0.00  0.00    +0.060 C 
ATOM      4  C   UNL     1      38.286 -16.811 -31.995  0.00  0.00    -0.029 C 
ATOM      5  C   UNL     1      39.178 -17.554 -32.980  0.00  0.00    -0.044 C 
ATOM      6  C   UNL     1      38.390 -18.627 -33.711  0.00  0.00    -0.012 C 
ATOM      7  C   UNL     1      38.272 -19.976 -33.052  0.00  0.00    -0.033 C 
ATOM      8  C   UNL     1      39.140 -19.852 -34.312  0.00  0.00    +0.039 C 
ATOM      9  C   UNL     1      40.647 -20.006 -34.054  0.00  0.00    +0.141 C 
ATOM     10  O   UNL     1      41.074 -20.134 -32.908  0.00  0.00    -0.297 OA
ATOM     11  C   UNL     1      41.606 -20.045 -35.231  0.00  0.00    +0.013 C 
ATOM     12  C   UNL     1      40.904 -20.110 -36.591  0.00  0.00    -0.013 C 
ATOM     13  C   UNL     1      40.508 -18.657 -36.947  0.00  0.00    -0.058 C 
ATOM     14  C   UNL     1      41.759 -20.773 -37.747  0.00  0.00    +0.007 C 
ATOM     15  C   UNL     1      40.722 -21.526 -38.640  0.00  0.00    +0.061 C 
ATOM     16  C   UNL     1      39.351 -21.319 -37.975  0.00  0.00    -0.020 C 
ATOM     17  C   UNL     1      39.680 -21.103 -36.484  0.00  0.00    -0.020 C 
ATOM     18  C   UNL     1      40.055 -22.507 -35.890  0.00  0.00    -0.059 C 
ATOM     19  C   UNL     1      38.544 -20.553 -35.567  0.00  0.00    -0.022 C 
ATOM     20  C   UNL     1      37.477 -19.722 -36.298  0.00  0.00    -0.048 C 
ATOM     21  C   UNL     1      36.482 -19.069 -35.345  0.00  0.00    -0.049 C 
ATOM     22  C   UNL     1      37.193 -18.031 -34.464  0.00  0.00    -0.026 C 
ATOM     23  C   UNL     1      36.233 -17.223 -33.515  0.00  0.00    +0.009 C 
ATOM     24  C   UNL     1      35.213 -16.439 -34.386  0.00  0.00    -0.056 C 
ATOM     25  C   UNL     1      35.474 -18.134 -32.535  0.00  0.00    +0.018 C 
ATOM     26  N   UNL     1      34.757 -17.334 -31.572  0.00  0.00    -0.332 N 
ATOM     27  H   UNL     1      36.521 -14.625 -31.323  0.00  0.00    +0.000 HD
ATOM     28  H   UNL     1      33.902 -17.665 -31.213  0.00  0.00    +0.000 HD
ENDROOT
BRANCH   1  29
ATOM     29  C   UNL     1      34.458 -15.421 -30.029  0.00  0.00    +0.011 C 
ATOM     30  C   UNL     1      34.451 -13.908 -30.243  0.00  0.00    -0.056 C 
BRANCH  29  32
ATOM     31  C   UNL     1      32.430 -15.928 -28.565  0.00  0.00    -0.065 C 
ATOM     32  C   UNL     1      33.048 -16.024 -29.952  0.00  0.00    -0.047 C 
ENDBRANCH  29  32
ENDBRANCH   1  29
BRANCH  14  33
ATOM     33  C   UNL     1      42.962 -20.029 -38.440  0.00  0.00    +0.013 C 
ATOM     34  C   UNL     1      43.728 -21.084 -39.282  0.00  0.00    -0.049 C 
BRANCH  33  35
ATOM     35  N   UNL     1      43.905 -19.243 -37.596  0.00  0.00    -0.305 N 
ATOM     36  C   UNL     1      44.983 -20.054 -37.013  0.00  0.00    -0.013 C 
ATOM     37  C   UNL     1      44.532 -18.135 -38.323  0.00  0.00    -0.013 C 
ATOM     38  H   UNL     1      43.311 -18.880 -36.850  0.00  0.00    +0.000 HD
ENDBRANCH  33  35
ENDBRANCH  14  33
BRANCH  15  39
ATOM     39  O   UNL     1      40.693 -21.182 -40.005  0.00  0.00    -0.391 OA
ATOM     40  H   UNL     1      39.991 -21.681 -40.450  0.00  0.00    +0.000 HD
ENDBRANCH  15  39
TORSDOF 5
ENDMDL
MODEL 20
REMARK VINA RESULT:    -6.058      3.384      9.659
REMARK INTER + INTRA:          -8.037
REMARK INTER:                  -7.740
REMARK INTRA:                  -0.298
REMARK UNBOUND:                -0.385
REMARK  Name = cpd86.pdb
REMARK  13 active torsions:
REMARK  status: ('A' for Active; 'I' for Inactive)
REMARK    1  A    between atoms: C_1  and  C_2
REMARK    2  A    between atoms: C_2  and  C_3
REMARK    3  A    between atoms: C_3  and  C_4
REMARK    4  A    between atoms: C_3  and  C_5
REMARK    5  A    between atoms: C_16  and  C_17
REMARK    6  A    between atoms: C_18  and  C_19
REMARK    7  A    between atoms: C_19  and  C_20
REMARK    8  A    between atoms: C_19  and  N_21
REMARK    9  A    between atoms: N_21  and  C_22
REMARK   10  A    between atoms: N_21  and  C_23
REMARK   11  A    between atoms: C_24  and  O_25
REMARK   12  A    between atoms: C_27  and  C_28
REMARK   13  A    between atoms: C_33  and  C_34
REMARK                            x       y       z     vdW  Elec       q    Type
REMARK                         _______ _______ _______ _____ _____    ______ ____
ROOT
ATOM      1  C   UNL     1      30.874 -44.591 -27.577  0.00  0.00    +0.093 C 
ATOM      2  N   UNL     1      30.285 -43.589 -28.132  0.00  0.00    -0.269 N 
ATOM      3  C   UNL     1      31.097 -42.443 -28.578  0.00  0.00    +0.060 C 
ATOM      4  C   UNL     1      30.980 -41.357 -27.500  0.00  0.00    -0.029 C 
ATOM      5  C   UNL     1      31.794 -40.118 -27.848  0.00  0.00    -0.044 C 
ATOM      6  C   UNL     1      33.250 -40.483 -28.080  0.00  0.00    -0.012 C 
ATOM      7  C   UNL     1      34.155 -40.539 -26.877  0.00  0.00    -0.033 C 
ATOM      8  C   UNL     1      34.350 -39.399 -27.886  0.00  0.00    +0.039 C 
ATOM      9  C   UNL     1      33.950 -38.014 -27.355  0.00  0.00    +0.141 C 
ATOM     10  O   UNL     1      33.445 -37.895 -26.240  0.00  0.00    -0.297 OA
ATOM     11  C   UNL     1      34.225 -36.781 -28.199  0.00  0.00    +0.013 C 
ATOM     12  C   UNL     1      35.064 -37.069 -29.448  0.00  0.00    -0.013 C 
ATOM     13  C   UNL     1      34.083 -37.599 -30.520  0.00  0.00    -0.058 C 
ATOM     14  C   UNL     1      35.894 -35.833 -29.988  0.00  0.00    +0.007 C 
ATOM     15  C   UNL     1      37.215 -36.445 -30.553  0.00  0.00    +0.061 C 
ATOM     16  C   UNL     1      37.132 -37.959 -30.296  0.00  0.00    -0.020 C 
ATOM     17  C   UNL     1      36.211 -38.086 -29.066  0.00  0.00    -0.020 C 
ATOM     18  C   UNL     1      37.053 -37.648 -27.815  0.00  0.00    -0.059 C 
ATOM     19  C   UNL     1      35.660 -39.504 -28.720  0.00  0.00    -0.022 C 
ATOM     20  C   UNL     1      35.562 -40.462 -29.918  0.00  0.00    -0.048 C 
ATOM     21  C   UNL     1      34.868 -41.774 -29.570  0.00  0.00    -0.049 C 
ATOM     22  C   UNL     1      33.398 -41.517 -29.204  0.00  0.00    -0.026 C 
ATOM     23  C   UNL     1      32.563 -42.821 -28.929  0.00  0.00    +0.009 C 
ATOM     24  C   UNL     1      32.553 -43.690 -30.218  0.00  0.00    -0.056 C 
ATOM     25  C   UNL     1      33.133 -43.647 -27.762  0.00  0.00    +0.018 C 
ATOM     26  N   UNL     1      32.231 -44.724 -27.433  0.00  0.00    -0.332 N 
ATOM     27  H   UNL     1      29.308 -43.588 -28.257  0.00  0.00    +0.000 HD
ATOM     28  H   UNL     1      32.599 -45.574 -27.097  0.00  0.00    +0.000 HD
ENDROOT
BRANCH   1  29
ATOM     29  C   UNL     1      30.007 -45.753 -27.079  0.00  0.00    +0.011 C 
ATOM     30  C   UNL     1      30.473 -47.075 -27.687  0.00  0.00    -0.056 C 
BRANCH  29  32
ATOM     31  C   UNL     1      30.716 -46.979 -24.955  0.00  0.00    -0.065 C 
ATOM     32  C   UNL     1      30.019 -45.761 -25.543  0.00  0.00    -0.047 C 
ENDBRANCH  29  32
ENDBRANCH   1  29
BRANCH  14  33
ATOM     33  C   UNL     1      35.219 -34.635 -30.757  0.00  0.00    +0.013 C 
ATOM     34  C   UNL     1      36.320 -33.567 -30.995  0.00  0.00    -0.049 C 
BRANCH  33  35
ATOM     35  N   UNL     1      33.994 -34.011 -30.185  0.00  0.00    -0.305 N 
ATOM     36  C   UNL     1      34.137 -32.572 -29.925  0.00  0.00    -0.013 C 
ATOM     37  C   UNL     1      32.813 -34.188 -31.036  0.00  0.00    -0.013 C 
ATOM     38  H   UNL     1      33.865 -34.504 -29.301  0.00  0.00    +0.000 HD
ENDBRANCH  33  35
ENDBRANCH  14  33
BRANCH  15  39
ATOM     39  O   UNL     1      37.518 -36.164 -31.899  0.00  0.00    -0.391 OA
ATOM     40  H   UNL     1      38.475 -36.042 -31.996  0.00  0.00    +0.000 HD
ENDBRANCH  15  39
TORSDOF 5
ENDMDL
