REMARK  Name = cpd86.pdb
REMARK  13 active torsions:
REMARK  status: ('A' for Active; 'I' for Inactive)
REMARK    1  A    between atoms: C_1  and  C_2
REMARK    2  A    between atoms: C_2  and  C_3
REMARK    3  A    between atoms: C_3  and  C_4
REMARK    4  A    between atoms: C_3  and  C_5
REMARK    5  A    between atoms: C_16  and  C_17
REMARK    6  A    between atoms: C_18  and  C_19
REMARK    7  A    between atoms: C_19  and  C_20
REMARK    8  A    between atoms: C_19  and  N_21
REMARK    9  A    between atoms: N_21  and  C_22
REMARK   10  A    between atoms: N_21  and  C_23
REMARK   11  A    between atoms: C_24  and  O_25
REMARK   12  A    between atoms: C_27  and  C_28
REMARK   13  A    between atoms: C_33  and  C_34
REMARK                            x       y       z     vdW  Elec       q    Type
REMARK                         _______ _______ _______ _____ _____    ______ ____
ROOT
ATOM      1  C   UNL     1      -1.949   0.325   0.333  0.00  0.00    +0.093 C 
ATOM      2  N   UNL     1      -1.842  -0.772   1.001  0.00  0.00    -0.269 N 
ATOM      3  C   UNL     1      -0.593  -1.547   0.902  0.00  0.00    +0.060 C 
ATOM      4  C   UNL     1      -0.844  -2.687  -0.094  0.00  0.00    -0.029 C 
ATOM      5  C   UNL     1       0.391  -3.556  -0.288  0.00  0.00    -0.044 C 
ATOM      6  C   UNL     1       1.574  -2.713  -0.732  0.00  0.00    -0.012 C 
ATOM      7  C   UNL     1       1.728  -2.450  -2.207  0.00  0.00    -0.033 C 
ATOM      8  C   UNL     1       2.737  -3.382  -1.522  0.00  0.00    +0.039 C 
ATOM      9  C   UNL     1       2.610  -4.857  -1.933  0.00  0.00    +0.141 C 
ATOM     10  O   UNL     1       1.708  -5.219  -2.687  0.00  0.00    -0.297 OA
ATOM     11  C   UNL     1       3.636  -5.862  -1.439  0.00  0.00    +0.013 C 
ATOM     12  C   UNL     1       4.819  -5.219  -0.708  0.00  0.00    -0.013 C 
ATOM     13  C   UNL     1       4.350  -4.966   0.744  0.00  0.00    -0.058 C 
ATOM     14  C   UNL     1       6.157  -6.066  -0.741  0.00  0.00    +0.007 C 
ATOM     15  C   UNL     1       7.306  -5.010  -0.805  0.00  0.00    +0.061 C 
ATOM     16  C   UNL     1       6.623  -3.633  -0.848  0.00  0.00    -0.020 C 
ATOM     17  C   UNL     1       5.246  -3.911  -1.484  0.00  0.00    -0.020 C 
ATOM     18  C   UNL     1       5.487  -4.137  -3.019  0.00  0.00    -0.059 C 
ATOM     19  C   UNL     1       4.169  -2.786  -1.394  0.00  0.00    -0.022 C 
ATOM     20  C   UNL     1       4.342  -1.828  -0.204  0.00  0.00    -0.048 C 
ATOM     21  C   UNL     1       3.181  -0.851  -0.059  0.00  0.00    -0.049 C 
ATOM     22  C   UNL     1       1.889  -1.607   0.284  0.00  0.00    -0.026 C 
ATOM     23  C   UNL     1       0.650  -0.678   0.559  0.00  0.00    +0.009 C 
ATOM     24  C   UNL     1       0.967   0.231   1.779  0.00  0.00    -0.056 C 
ATOM     25  C   UNL     1       0.296   0.200  -0.654  0.00  0.00    +0.018 C 
ATOM     26  N   UNL     1      -0.950   0.889  -0.417  0.00  0.00    -0.332 N 
ATOM     27  H   UNL     1      -2.583  -1.087   1.568  0.00  0.00    +0.000 HD
ATOM     28  H   UNL     1      -1.085   1.785  -0.803  0.00  0.00    +0.000 HD
ENDROOT
BRANCH   1  29
ATOM     29  C   UNL     1      -3.274   1.093   0.413  0.00  0.00    +0.011 C 
ATOM     30  C   UNL     1      -4.459   0.148   0.220  0.00  0.00    -0.056 C 
BRANCH  29  32
ATOM     31  C   UNL     1      -4.492   2.832   1.829  0.00  0.00    -0.065 C 
ATOM     32  C   UNL     1      -3.326   1.859   1.743  0.00  0.00    -0.047 C 
ENDBRANCH  29  32
ENDBRANCH   1  29
BRANCH  14  33
ATOM     33  C   UNL     1       6.359  -7.359   0.136  0.00  0.00    +0.013 C 
ATOM     34  C   UNL     1       5.551  -8.500  -0.539  0.00  0.00    -0.049 C 
BRANCH  33  35
ATOM     35  N   UNL     1       6.062  -7.294   1.594  0.00  0.00    -0.305 N 
ATOM     36  C   UNL     1       6.027  -8.612   2.243  0.00  0.00    -0.013 C 
ATOM     37  C   UNL     1       7.018  -6.465   2.334  0.00  0.00    -0.013 C 
ATOM     38  H   UNL     1       5.133  -6.873   1.630  0.00  0.00    +0.000 HD
ENDBRANCH  33  35
ENDBRANCH  14  33
BRANCH  15  39
ATOM     39  O   UNL     1       8.282  -5.073   0.208  0.00  0.00    -0.391 OA
ATOM     40  H   UNL     1       7.868  -4.897   1.067  0.00  0.00    +0.000 HD
ENDBRANCH  15  39
TORSDOF 5
