@<TRIPOS>MOLECULE
*****
 36 39 0 0 0
SMALL
GASTEIGER

@<TRIPOS>ATOM
      1 C          -4.4621    2.5068    0.0000 C.3     1  UNL1        0.0305
      2 C          -3.5269    2.3085    0.0000 C.2     1  UNL1       -0.0255
      3 C          -3.2311    1.3994    0.0000 C.2     1  UNL1        0.0289
      4 C          -3.8705    0.6887    0.0000 C.3     1  UNL1        0.0355
      5 C          -2.2959    1.2010    0.0000 C.2     1  UNL1        0.2606
      6 O          -2.0001    0.2920    0.0000 O.2     1  UNL1       -0.2687
      7 N          -1.6565    1.9118    0.0000 N.am    1  UNL1       -0.1974
      8 C          -0.0003    0.9565    0.0000 C.3     1  UNL1        0.1656
      9 C           0.8274    1.4349    0.0000 C.3     1  UNL1        0.1910
     10 O           0.8270    2.3909    0.0000 O.3     1  UNL1       -0.4504
     11 C          -0.1082    2.5893    0.0000 C.2     1  UNL1        0.3175
     12 C          -0.4040    3.4984    0.0000 C.3     1  UNL1        0.1212
     13 O          -0.7476    1.8786    0.0000 O.2     1  UNL1       -0.2501
     14 C           1.6553    0.9569    0.0000 C.3     1  UNL1        0.0421
     15 C           2.4835    1.4354    0.0000 C.3     1  UNL1        0.0040
     16 C           3.3120    0.9574    0.0000 C.3     1  UNL1        0.0041
     17 C           3.3123    0.0009    0.0000 C.3     1  UNL1        0.0180
     18 C           4.1408   -0.4771    0.0000 C.2     1  UNL1       -0.0493
     19 C           5.7963   -0.4766    0.0000 C.2     1  UNL1       -0.0346
     20 C           5.7966   -1.4325    0.0000 C.3     1  UNL1        0.0270
     21 C           4.9695   -1.9109    0.0000 C.3     1  UNL1        0.0224
     22 C           4.9700   -2.8664    0.0000 C.3     1  UNL1        0.0582
     23 C           4.0197   -2.9667    0.0000 C.3     1  UNL1        0.0174
     24 N           5.5319   -3.6392    0.0000 N.3     1  UNL1       -0.2716
     25 C           5.1437   -4.5123    0.0000 C.3     1  UNL1        0.0896
     26 C           6.4821   -3.5389    0.0000 C.3     1  UNL1        0.0896
     27 C           4.1411   -1.4329    0.0000 C.3     1  UNL1        0.0164
     28 C           4.1413   -2.4084    0.0000 C.3     1  UNL1        0.0041
     29 C           3.3128   -1.9114    0.0000 C.3     1  UNL1        0.0038
     30 C           2.4843   -1.4334    0.0000 C.3     1  UNL1        0.0006
     31 C           2.4841   -0.4775    0.0000 C.3     1  UNL1        0.0039
     32 C           1.6556    0.0005    0.0000 C.3     1  UNL1        0.0062
     33 C           1.6558   -0.9750    0.0000 C.3     1  UNL1        0.0002
     34 C           0.8279   -0.4780    0.0000 C.3     1  UNL1        0.0349
     35 C           0.0000    0.0000    0.0000 C.3     1  UNL1        0.1754
     36 O          -0.8447   -0.4879    0.0000 O.3     1  UNL1       -0.2212
@<TRIPOS>BOND
     1     1     2    1
     2     2     3    2
     3     3     4    1
     4     3     5    1
     5     5     6    2
     6     5     7   am
     7     7     8    1
     8     8     9    1
     9     9    10    1
    10    10    11    1
    11    11    12    1
    12    11    13    2
    13     9    14    1
    14    14    15    1
    15    15    16    1
    16    16    17    1
    17    17    18    1
    18    18    19    2
    19    19    20    1
    20    20    21    1
    21    21    22    1
    22    22    23    1
    23    22    24    1
    24    24    25    1
    25    24    26    1
    26    21    27    1
    27    18    27    1
    28    27    28    1
    29    27    29    1
    30    29    30    1
    31    30    31    1
    32    17    31    1
    33    31    32    1
    34    14    32    1
    35    32    33    1
    36    32    34    1
    37    34    35    1
    38     8    35    1
    39    35    36    1
