MODEL 1
REMARK VINA RESULT:    -7.797      0.000      0.000
REMARK INTER + INTRA:         -12.313
REMARK INTER:                 -10.760
REMARK INTRA:                  -1.552
REMARK UNBOUND:                -1.552
REMARK  Name = cpd185.pdb
REMARK  15 active torsions:
REMARK  status: ('A' for Active; 'I' for Inactive)
REMARK    1  A    between atoms: C_1  and  C_2
REMARK    2  A    between atoms: C_3  and  C_4
REMARK    3  A    between atoms: C_3  and  C_5
REMARK    4  A    between atoms: N_7  and  C_8
REMARK    5  A    between atoms: C_9  and  O_10
REMARK    6  A    between atoms: O_10  and  C_11
REMARK    7  A    between atoms: C_11  and  C_12
REMARK    8  A    between atoms: C_21  and  C_22
REMARK    9  A    between atoms: C_22  and  C_23
REMARK   10  A    between atoms: C_22  and  N_24
REMARK   11  A    between atoms: N_24  and  C_25
REMARK   12  A    between atoms: N_24  and  C_26
REMARK   13  A    between atoms: C_27  and  C_28
REMARK   14  A    between atoms: C_32  and  C_33
REMARK   15  A    between atoms: C_35  and  O_36
REMARK                            x       y       z     vdW  Elec       q    Type
REMARK                         _______ _______ _______ _____ _____    ______ ____
ROOT
ATOM      1  C   UNL     1      35.943 -35.998 -31.325  0.00  0.00    +0.086 C 
ATOM      2  C   UNL     1      34.526 -36.636 -31.397  0.00  0.00    +0.127 C 
ATOM      3  C   UNL     1      33.368 -35.614 -31.261  0.00  0.00    +0.004 C 
ATOM      4  C   UNL     1      31.998 -36.308 -31.137  0.00  0.00    -0.046 C 
ATOM      5  C   UNL     1      30.861 -35.367 -30.738  0.00  0.00    -0.046 C 
ATOM      6  C   UNL     1      31.147 -33.905 -31.078  0.00  0.00    -0.016 C 
ATOM      7  C   UNL     1      29.986 -33.018 -30.744  0.00  0.00    -0.064 C 
ATOM      8  C   UNL     1      29.092 -32.509 -31.605  0.00  0.00    -0.084 C 
ATOM      9  C   UNL     1      28.167 -31.537 -30.940  0.00  0.00    -0.029 C 
ATOM     10  C   UNL     1      28.917 -31.202 -29.628  0.00  0.00    -0.013 C 
ATOM     11  C   UNL     1      29.765 -32.505 -29.345  0.00  0.00    -0.006 C 
ATOM     12  C   UNL     1      28.847 -33.483 -28.558  0.00  0.00    -0.056 C 
ATOM     13  C   UNL     1      31.081 -32.369 -28.551  0.00  0.00    -0.043 C 
ATOM     14  C   UNL     1      32.353 -32.285 -29.392  0.00  0.00    -0.048 C 
ATOM     15  C   UNL     1      32.495 -33.366 -30.496  0.00  0.00    -0.029 C 
ATOM     16  C   UNL     1      33.571 -34.496 -30.190  0.00  0.00    -0.020 C 
ATOM     17  C   UNL     1      33.438 -35.059 -28.754  0.00  0.00    -0.059 C 
ATOM     18  C   UNL     1      35.001 -33.871 -30.305  0.00  0.00    -0.019 C 
ATOM     19  C   UNL     1      35.856 -34.456 -31.430  0.00  0.00    +0.077 C 
ENDROOT
BRANCH   1  22
ATOM     20  C   UNL     1      38.018 -36.771 -30.189  0.00  0.00    +0.240 C 
ATOM     21  O   UNL     1      38.770 -36.443 -31.097  0.00  0.00    -0.271 OA
ATOM     22  N   UNL     1      36.685 -36.461 -30.145  0.00  0.00    -0.303 N 
ATOM     23  H   UNL     1      36.206 -36.552 -29.290  0.00  0.00    +0.000 HD
BRANCH  20  26
ATOM     24  C   UNL     1      40.551 -38.570 -27.910  0.00  0.00    -0.046 C 
ATOM     25  C   UNL     1      39.803 -37.862 -28.992  0.00  0.00    -0.079 C 
ATOM     26  C   UNL     1      38.490 -37.563 -29.021  0.00  0.00    +0.007 C 
ATOM     27  C   UNL     1      37.449 -37.854 -27.991  0.00  0.00    -0.035 C 
ENDBRANCH  20  26
ENDBRANCH   1  22
BRANCH  10  28
ATOM     28  C   UNL     1      29.636 -29.803 -29.695  0.00  0.00    +0.011 C 
ATOM     29  C   UNL     1      29.458 -29.099 -31.056  0.00  0.00    -0.049 C 
BRANCH  28  30
ATOM     30  N   UNL     1      29.174 -28.842 -28.633  0.00  0.00    -0.305 N 
ATOM     31  C   UNL     1      28.278 -29.492 -27.663  0.00  0.00    -0.013 C 
ATOM     32  C   UNL     1      28.499 -27.651 -29.154  0.00  0.00    -0.013 C 
ATOM     33  H   UNL     1      30.036 -28.540 -28.179  0.00  0.00    +0.000 HD
ENDBRANCH  28  30
ENDBRANCH  10  28
BRANCH  19  34
ATOM     34  O   UNL     1      37.120 -33.795 -31.417  0.00  0.00    -0.390 OA
ATOM     35  H   UNL     1      37.707 -34.206 -32.070  0.00  0.00    +0.000 HD
ENDBRANCH  19  34
BRANCH   2  36
ATOM     36  O   UNL     1      34.373 -37.686 -30.411  0.00  0.00    -0.459 OA
BRANCH  36  37
ATOM     37  C   UNL     1      34.687 -38.946 -30.823  0.00  0.00    +0.304 C 
ATOM     38  C   UNL     1      33.503 -39.571 -31.494  0.00  0.00    +0.033 C 
ATOM     39  O   UNL     1      35.762 -39.500 -30.658  0.00  0.00    -0.251 OA
ENDBRANCH  36  37
ENDBRANCH   2  36
TORSDOF 7
ENDMDL
MODEL 2
REMARK VINA RESULT:    -7.331      1.869      2.865
REMARK INTER + INTRA:         -11.670
REMARK INTER:                 -10.458
REMARK INTRA:                  -1.212
REMARK UNBOUND:                -1.552
REMARK  Name = cpd185.pdb
REMARK  15 active torsions:
REMARK  status: ('A' for Active; 'I' for Inactive)
REMARK    1  A    between atoms: C_1  and  C_2
REMARK    2  A    between atoms: C_3  and  C_4
REMARK    3  A    between atoms: C_3  and  C_5
REMARK    4  A    between atoms: N_7  and  C_8
REMARK    5  A    between atoms: C_9  and  O_10
REMARK    6  A    between atoms: O_10  and  C_11
REMARK    7  A    between atoms: C_11  and  C_12
REMARK    8  A    between atoms: C_21  and  C_22
REMARK    9  A    between atoms: C_22  and  C_23
REMARK   10  A    between atoms: C_22  and  N_24
REMARK   11  A    between atoms: N_24  and  C_25
REMARK   12  A    between atoms: N_24  and  C_26
REMARK   13  A    between atoms: C_27  and  C_28
REMARK   14  A    between atoms: C_32  and  C_33
REMARK   15  A    between atoms: C_35  and  O_36
REMARK                            x       y       z     vdW  Elec       q    Type
REMARK                         _______ _______ _______ _____ _____    ______ ____
ROOT
ATOM      1  C   UNL     1      34.290 -37.042 -30.230  0.00  0.00    +0.086 C 
ATOM      2  C   UNL     1      33.539 -36.598 -28.942  0.00  0.00    +0.127 C 
ATOM      3  C   UNL     1      32.500 -35.470 -29.176  0.00  0.00    +0.004 C 
ATOM      4  C   UNL     1      31.931 -34.927 -27.851  0.00  0.00    -0.046 C 
ATOM      5  C   UNL     1      31.108 -33.648 -28.010  0.00  0.00    -0.046 C 
ATOM      6  C   UNL     1      30.546 -33.468 -29.419  0.00  0.00    -0.016 C 
ATOM      7  C   UNL     1      29.685 -32.247 -29.523  0.00  0.00    -0.064 C 
ATOM      8  C   UNL     1      28.344 -32.210 -29.538  0.00  0.00    -0.084 C 
ATOM      9  C   UNL     1      27.826 -30.833 -29.816  0.00  0.00    -0.029 C 
ATOM     10  C   UNL     1      29.067 -30.118 -30.404  0.00  0.00    -0.013 C 
ATOM     11  C   UNL     1      30.281 -30.879 -29.737  0.00  0.00    -0.006 C 
ATOM     12  C   UNL     1      30.549 -30.196 -28.367  0.00  0.00    -0.056 C 
ATOM     13  C   UNL     1      31.623 -30.933 -30.496  0.00  0.00    -0.043 C 
ATOM     14  C   UNL     1      31.873 -32.204 -31.306  0.00  0.00    -0.048 C 
ATOM     15  C   UNL     1      31.625 -33.535 -30.549  0.00  0.00    -0.029 C 
ATOM     16  C   UNL     1      32.940 -34.331 -30.149  0.00  0.00    -0.020 C 
ATOM     17  C   UNL     1      34.006 -33.415 -29.500  0.00  0.00    -0.059 C 
ATOM     18  C   UNL     1      33.581 -34.928 -31.447  0.00  0.00    -0.019 C 
ATOM     19  C   UNL     1      33.609 -36.457 -31.491  0.00  0.00    +0.077 C 
ENDROOT
BRANCH   1  22
ATOM     20  C   UNL     1      36.687 -37.630 -30.552  0.00  0.00    +0.240 C 
ATOM     21  O   UNL     1      36.467 -38.610 -31.252  0.00  0.00    -0.271 OA
ATOM     22  N   UNL     1      35.726 -36.742 -30.150  0.00  0.00    -0.303 N 
ATOM     23  H   UNL     1      36.008 -35.868 -29.794  0.00  0.00    +0.000 HD
BRANCH  20  26
ATOM     24  C   UNL     1      39.920 -38.088 -28.506  0.00  0.00    -0.046 C 
ATOM     25  C   UNL     1      38.557 -38.132 -29.117  0.00  0.00    -0.079 C 
ATOM     26  C   UNL     1      38.051 -37.307 -30.053  0.00  0.00    +0.007 C 
ATOM     27  C   UNL     1      38.710 -36.146 -30.722  0.00  0.00    -0.035 C 
ENDBRANCH  20  26
ENDBRANCH   1  22
BRANCH  10  28
ATOM     28  C   UNL     1      28.993 -29.990 -31.971  0.00  0.00    +0.011 C 
ATOM     29  C   UNL     1      27.860 -30.835 -32.591  0.00  0.00    -0.049 C 
BRANCH  28  30
ATOM     30  N   UNL     1      28.804 -28.575 -32.447  0.00  0.00    -0.305 N 
ATOM     31  C   UNL     1      27.899 -27.821 -31.566  0.00  0.00    -0.013 C 
ATOM     32  C   UNL     1      28.306 -28.465 -33.820  0.00  0.00    -0.013 C 
ATOM     33  H   UNL     1      29.743 -28.177 -32.421  0.00  0.00    +0.000 HD
ENDBRANCH  28  30
ENDBRANCH  10  28
BRANCH  19  34
ATOM     34  O   UNL     1      34.212 -36.854 -32.721  0.00  0.00    -0.390 OA
ATOM     35  H   UNL     1      33.586 -37.395 -33.228  0.00  0.00    +0.000 HD
ENDBRANCH  19  34
BRANCH   2  36
ATOM     36  O   UNL     1      34.469 -36.201 -27.904  0.00  0.00    -0.459 OA
BRANCH  36  37
ATOM     37  C   UNL     1      34.831 -37.172 -27.020  0.00  0.00    +0.304 C 
ATOM     38  C   UNL     1      33.800 -37.284 -25.938  0.00  0.00    +0.033 C 
ATOM     39  O   UNL     1      35.849 -37.842 -27.079  0.00  0.00    -0.251 OA
ENDBRANCH  36  37
ENDBRANCH   2  36
TORSDOF 7
ENDMDL
MODEL 3
REMARK VINA RESULT:    -7.145      1.568      2.130
REMARK INTER + INTRA:         -11.412
REMARK INTER:                  -9.804
REMARK INTRA:                  -1.609
REMARK UNBOUND:                -1.552
REMARK  Name = cpd185.pdb
REMARK  15 active torsions:
REMARK  status: ('A' for Active; 'I' for Inactive)
REMARK    1  A    between atoms: C_1  and  C_2
REMARK    2  A    between atoms: C_3  and  C_4
REMARK    3  A    between atoms: C_3  and  C_5
REMARK    4  A    between atoms: N_7  and  C_8
REMARK    5  A    between atoms: C_9  and  O_10
REMARK    6  A    between atoms: O_10  and  C_11
REMARK    7  A    between atoms: C_11  and  C_12
REMARK    8  A    between atoms: C_21  and  C_22
REMARK    9  A    between atoms: C_22  and  C_23
REMARK   10  A    between atoms: C_22  and  N_24
REMARK   11  A    between atoms: N_24  and  C_25
REMARK   12  A    between atoms: N_24  and  C_26
REMARK   13  A    between atoms: C_27  and  C_28
REMARK   14  A    between atoms: C_32  and  C_33
REMARK   15  A    between atoms: C_35  and  O_36
REMARK                            x       y       z     vdW  Elec       q    Type
REMARK                         _______ _______ _______ _____ _____    ______ ____
ROOT
ATOM      1  C   UNL     1      34.443 -34.658 -31.752  0.00  0.00    +0.086 C 
ATOM      2  C   UNL     1      33.010 -35.259 -31.825  0.00  0.00    +0.127 C 
ATOM      3  C   UNL     1      31.884 -34.240 -31.509  0.00  0.00    +0.004 C 
ATOM      4  C   UNL     1      30.506 -34.921 -31.396  0.00  0.00    -0.046 C 
ATOM      5  C   UNL     1      29.412 -34.013 -30.832  0.00  0.00    -0.046 C 
ATOM      6  C   UNL     1      29.715 -32.526 -31.012  0.00  0.00    -0.016 C 
ATOM      7  C   UNL     1      28.593 -31.666 -30.518  0.00  0.00    -0.064 C 
ATOM      8  C   UNL     1      27.670 -31.042 -31.265  0.00  0.00    -0.084 C 
ATOM      9  C   UNL     1      26.802 -30.140 -30.445  0.00  0.00    -0.029 C 
ATOM     10  C   UNL     1      27.624 -29.975 -29.143  0.00  0.00    -0.013 C 
ATOM     11  C   UNL     1      28.454 -31.317 -29.058  0.00  0.00    -0.006 C 
ATOM     12  C   UNL     1      27.553 -32.364 -28.345  0.00  0.00    -0.056 C 
ATOM     13  C   UNL     1      29.810 -31.298 -28.324  0.00  0.00    -0.043 C 
ATOM     14  C   UNL     1      31.041 -31.138 -29.214  0.00  0.00    -0.048 C 
ATOM     15  C   UNL     1      31.102 -32.084 -30.442  0.00  0.00    -0.029 C 
ATOM     16  C   UNL     1      32.165 -33.260 -30.327  0.00  0.00    -0.020 C 
ATOM     17  C   UNL     1      32.091 -33.986 -28.962  0.00  0.00    -0.059 C 
ATOM     18  C   UNL     1      33.603 -32.651 -30.443  0.00  0.00    -0.019 C 
ATOM     19  C   UNL     1      34.387 -33.114 -31.672  0.00  0.00    +0.077 C 
ENDROOT
BRANCH   1  22
ATOM     20  C   UNL     1      36.549 -35.609 -30.828  0.00  0.00    +0.240 C 
ATOM     21  O   UNL     1      37.262 -35.200 -31.735  0.00  0.00    -0.271 OA
ATOM     22  N   UNL     1      35.232 -35.270 -30.674  0.00  0.00    -0.303 N 
ATOM     23  H   UNL     1      34.797 -35.444 -29.808  0.00  0.00    +0.000 HD
BRANCH  20  26
ATOM     24  C   UNL     1      36.383 -37.937 -27.762  0.00  0.00    -0.046 C 
ATOM     25  C   UNL     1      36.164 -36.952 -28.864  0.00  0.00    -0.079 C 
ATOM     26  C   UNL     1      37.058 -36.539 -29.783  0.00  0.00    +0.007 C 
ATOM     27  C   UNL     1      38.484 -36.952 -29.944  0.00  0.00    -0.035 C 
ENDBRANCH  20  26
ENDBRANCH   1  22
BRANCH  10  28
ATOM     28  C   UNL     1      28.370 -28.591 -29.083  0.00  0.00    +0.011 C 
ATOM     29  C   UNL     1      27.884 -27.598 -30.159  0.00  0.00    -0.049 C 
BRANCH  28  30
ATOM     30  N   UNL     1      28.245 -27.901 -27.752  0.00  0.00    -0.305 N 
ATOM     31  C   UNL     1      27.192 -28.507 -26.922  0.00  0.00    -0.013 C 
ATOM     32  C   UNL     1      27.986 -26.462 -27.843  0.00  0.00    -0.013 C 
ATOM     33  H   UNL     1      29.160 -28.027 -27.319  0.00  0.00    +0.000 HD
ENDBRANCH  28  30
ENDBRANCH  10  28
BRANCH  19  34
ATOM     34  O   UNL     1      35.665 -32.481 -31.646  0.00  0.00    -0.390 OA
ATOM     35  H   UNL     1      35.919 -32.301 -30.728  0.00  0.00    +0.000 HD
ENDBRANCH  19  34
BRANCH   2  36
ATOM     36  O   UNL     1      32.881 -36.415 -30.961  0.00  0.00    -0.459 OA
BRANCH  36  37
ATOM     37  C   UNL     1      33.145 -37.623 -31.533  0.00  0.00    +0.304 C 
ATOM     38  C   UNL     1      31.885 -38.205 -32.097  0.00  0.00    +0.033 C 
ATOM     39  O   UNL     1      34.237 -38.168 -31.570  0.00  0.00    -0.251 OA
ENDBRANCH  36  37
ENDBRANCH   2  36
TORSDOF 7
ENDMDL
MODEL 4
REMARK VINA RESULT:    -7.013      2.012      3.847
REMARK INTER + INTRA:         -11.230
REMARK INTER:                  -9.956
REMARK INTRA:                  -1.273
REMARK UNBOUND:                -1.552
REMARK  Name = cpd185.pdb
REMARK  15 active torsions:
REMARK  status: ('A' for Active; 'I' for Inactive)
REMARK    1  A    between atoms: C_1  and  C_2
REMARK    2  A    between atoms: C_3  and  C_4
REMARK    3  A    between atoms: C_3  and  C_5
REMARK    4  A    between atoms: N_7  and  C_8
REMARK    5  A    between atoms: C_9  and  O_10
REMARK    6  A    between atoms: O_10  and  C_11
REMARK    7  A    between atoms: C_11  and  C_12
REMARK    8  A    between atoms: C_21  and  C_22
REMARK    9  A    between atoms: C_22  and  C_23
REMARK   10  A    between atoms: C_22  and  N_24
REMARK   11  A    between atoms: N_24  and  C_25
REMARK   12  A    between atoms: N_24  and  C_26
REMARK   13  A    between atoms: C_27  and  C_28
REMARK   14  A    between atoms: C_32  and  C_33
REMARK   15  A    between atoms: C_35  and  O_36
REMARK                            x       y       z     vdW  Elec       q    Type
REMARK                         _______ _______ _______ _____ _____    ______ ____
ROOT
ATOM      1  C   UNL     1      35.080 -37.072 -27.864  0.00  0.00    +0.086 C 
ATOM      2  C   UNL     1      35.341 -35.943 -28.903  0.00  0.00    +0.127 C 
ATOM      3  C   UNL     1      34.233 -34.859 -28.945  0.00  0.00    +0.004 C 
ATOM      4  C   UNL     1      34.430 -33.879 -30.118  0.00  0.00    -0.046 C 
ATOM      5  C   UNL     1      33.234 -32.959 -30.363  0.00  0.00    -0.046 C 
ATOM      6  C   UNL     1      32.351 -32.782 -29.128  0.00  0.00    -0.016 C 
ATOM      7  C   UNL     1      31.232 -31.818 -29.377  0.00  0.00    -0.064 C 
ATOM      8  C   UNL     1      31.168 -30.541 -28.971  0.00  0.00    -0.084 C 
ATOM      9  C   UNL     1      29.833 -29.929 -29.260  0.00  0.00    -0.029 C 
ATOM     10  C   UNL     1      28.941 -31.169 -29.510  0.00  0.00    -0.013 C 
ATOM     11  C   UNL     1      29.957 -32.250 -30.054  0.00  0.00    -0.006 C 
ATOM     12  C   UNL     1      30.072 -32.035 -31.590  0.00  0.00    -0.056 C 
ATOM     13  C   UNL     1      29.641 -33.741 -29.820  0.00  0.00    -0.043 C 
ATOM     14  C   UNL     1      30.326 -34.380 -28.613  0.00  0.00    -0.048 C 
ATOM     15  C   UNL     1      31.853 -34.126 -28.503  0.00  0.00    -0.029 C 
ATOM     16  C   UNL     1      32.765 -35.382 -28.843  0.00  0.00    -0.020 C 
ATOM     17  C   UNL     1      32.326 -36.090 -30.148  0.00  0.00    -0.059 C 
ATOM     18  C   UNL     1      32.630 -36.430 -27.688  0.00  0.00    -0.019 C 
ATOM     19  C   UNL     1      33.923 -36.684 -26.912  0.00  0.00    +0.077 C 
ENDROOT
BRANCH   1  22
ATOM     20  C   UNL     1      35.865 -39.332 -28.547  0.00  0.00    +0.240 C 
ATOM     21  O   UNL     1      36.855 -39.328 -27.827  0.00  0.00    -0.271 OA
ATOM     22  N   UNL     1      34.888 -38.374 -28.516  0.00  0.00    -0.303 N 
ATOM     23  H   UNL     1      34.024 -38.565 -28.948  0.00  0.00    +0.000 HD
BRANCH  20  26
ATOM     24  C   UNL     1      35.487 -40.892 -32.050  0.00  0.00    -0.046 C 
ATOM     25  C   UNL     1      35.623 -40.020 -30.844  0.00  0.00    -0.079 C 
ATOM     26  C   UNL     1      35.627 -40.403 -29.553  0.00  0.00    +0.007 C 
ATOM     27  C   UNL     1      35.501 -41.781 -28.992  0.00  0.00    -0.035 C 
ENDBRANCH  20  26
ENDBRANCH   1  22
BRANCH  10  28
ATOM     28  C   UNL     1      28.032 -31.507 -28.271  0.00  0.00    +0.011 C 
ATOM     29  C   UNL     1      27.949 -30.351 -27.252  0.00  0.00    -0.049 C 
BRANCH  28  30
ATOM     30  N   UNL     1      26.621 -31.871 -28.646  0.00  0.00    -0.305 N 
ATOM     31  C   UNL     1      26.339 -33.293 -28.391  0.00  0.00    -0.013 C 
ATOM     32  C   UNL     1      26.275 -31.579 -30.040  0.00  0.00    -0.013 C 
ATOM     33  H   UNL     1      26.044 -31.279 -28.050  0.00  0.00    +0.000 HD
ENDBRANCH  28  30
ENDBRANCH  10  28
BRANCH  19  34
ATOM     34  O   UNL     1      33.649 -37.650 -25.898  0.00  0.00    -0.390 OA
ATOM     35  H   UNL     1      32.743 -37.977 -26.000  0.00  0.00    +0.000 HD
ENDBRANCH  19  34
BRANCH   2  36
ATOM     36  O   UNL     1      35.544 -36.489 -30.229  0.00  0.00    -0.459 OA
BRANCH  36  37
ATOM     37  C   UNL     1      36.742 -36.211 -30.815  0.00  0.00    +0.304 C 
ATOM     38  C   UNL     1      37.858 -36.732 -29.961  0.00  0.00    +0.033 C 
ATOM     39  O   UNL     1      36.897 -35.612 -31.867  0.00  0.00    -0.251 OA
ENDBRANCH  36  37
ENDBRANCH   2  36
TORSDOF 7
ENDMDL
MODEL 5
REMARK VINA RESULT:    -6.759      3.478      5.126
REMARK INTER + INTRA:         -10.879
REMARK INTER:                  -9.522
REMARK INTRA:                  -1.357
REMARK UNBOUND:                -1.552
REMARK  Name = cpd185.pdb
REMARK  15 active torsions:
REMARK  status: ('A' for Active; 'I' for Inactive)
REMARK    1  A    between atoms: C_1  and  C_2
REMARK    2  A    between atoms: C_3  and  C_4
REMARK    3  A    between atoms: C_3  and  C_5
REMARK    4  A    between atoms: N_7  and  C_8
REMARK    5  A    between atoms: C_9  and  O_10
REMARK    6  A    between atoms: O_10  and  C_11
REMARK    7  A    between atoms: C_11  and  C_12
REMARK    8  A    between atoms: C_21  and  C_22
REMARK    9  A    between atoms: C_22  and  C_23
REMARK   10  A    between atoms: C_22  and  N_24
REMARK   11  A    between atoms: N_24  and  C_25
REMARK   12  A    between atoms: N_24  and  C_26
REMARK   13  A    between atoms: C_27  and  C_28
REMARK   14  A    between atoms: C_32  and  C_33
REMARK   15  A    between atoms: C_35  and  O_36
REMARK                            x       y       z     vdW  Elec       q    Type
REMARK                         _______ _______ _______ _____ _____    ______ ____
ROOT
ATOM      1  C   UNL     1      34.349 -38.568 -25.959  0.00  0.00    +0.086 C 
ATOM      2  C   UNL     1      35.182 -38.060 -27.171  0.00  0.00    +0.127 C 
ATOM      3  C   UNL     1      34.657 -36.736 -27.784  0.00  0.00    +0.004 C 
ATOM      4  C   UNL     1      35.385 -36.379 -29.095  0.00  0.00    -0.046 C 
ATOM      5  C   UNL     1      34.733 -35.236 -29.874  0.00  0.00    -0.046 C 
ATOM      6  C   UNL     1      33.878 -34.324 -28.995  0.00  0.00    -0.016 C 
ATOM      7  C   UNL     1      33.314 -33.173 -29.771  0.00  0.00    -0.064 C 
ATOM      8  C   UNL     1      33.757 -31.907 -29.763  0.00  0.00    -0.084 C 
ATOM      9  C   UNL     1      32.853 -30.994 -30.531  0.00  0.00    -0.029 C 
ATOM     10  C   UNL     1      31.551 -31.824 -30.643  0.00  0.00    -0.013 C 
ATOM     11  C   UNL     1      32.062 -33.319 -30.597  0.00  0.00    -0.006 C 
ATOM     12  C   UNL     1      32.430 -33.719 -32.054  0.00  0.00    -0.056 C 
ATOM     13  C   UNL     1      31.115 -34.404 -30.046  0.00  0.00    -0.043 C 
ATOM     14  C   UNL     1      31.320 -34.777 -28.579  0.00  0.00    -0.048 C 
ATOM     15  C   UNL     1      32.785 -35.078 -28.168  0.00  0.00    -0.029 C 
ATOM     16  C   UNL     1      33.105 -36.613 -27.910  0.00  0.00    -0.020 C 
ATOM     17  C   UNL     1      32.557 -37.524 -29.035  0.00  0.00    -0.059 C 
ATOM     18  C   UNL     1      32.406 -37.057 -26.582  0.00  0.00    -0.019 C 
ATOM     19  C   UNL     1      33.369 -37.474 -25.470  0.00  0.00    +0.077 C 
ENDROOT
BRANCH   1  22
ATOM     20  C   UNL     1      33.655 -40.879 -25.352  0.00  0.00    +0.240 C 
ATOM     21  O   UNL     1      33.897 -40.757 -24.158  0.00  0.00    -0.271 OA
ATOM     22  N   UNL     1      33.694 -39.850 -26.253  0.00  0.00    -0.303 N 
ATOM     23  H   UNL     1      33.267 -39.973 -27.131  0.00  0.00    +0.000 HD
BRANCH  20  26
ATOM     24  C   UNL     1      33.972 -43.918 -27.700  0.00  0.00    -0.046 C 
ATOM     25  C   UNL     1      34.062 -42.615 -26.973  0.00  0.00    -0.079 C 
ATOM     26  C   UNL     1      33.292 -42.191 -25.953  0.00  0.00    +0.007 C 
ATOM     27  C   UNL     1      32.161 -42.902 -25.285  0.00  0.00    -0.035 C 
ENDBRANCH  20  26
ENDBRANCH   1  22
BRANCH  10  28
ATOM     28  C   UNL     1      30.451 -31.344 -29.625  0.00  0.00    +0.011 C 
ATOM     29  C   UNL     1      30.881 -30.104 -28.815  0.00  0.00    -0.049 C 
BRANCH  28  30
ATOM     30  N   UNL     1      29.136 -31.016 -30.277  0.00  0.00    -0.305 N 
ATOM     31  C   UNL     1      29.266 -30.900 -31.739  0.00  0.00    -0.013 C 
ATOM     32  C   UNL     1      28.505 -29.792 -29.775  0.00  0.00    -0.013 C 
ATOM     33  H   UNL     1      28.533 -31.802 -30.032  0.00  0.00    +0.000 HD
ENDBRANCH  28  30
ENDBRANCH  10  28
BRANCH  19  34
ATOM     34  O   UNL     1      32.596 -37.846 -24.330  0.00  0.00    -0.390 OA
ATOM     35  H   UNL     1      32.105 -37.075 -24.007  0.00  0.00    +0.000 HD
ENDBRANCH  19  34
BRANCH   2  36
ATOM     36  O   UNL     1      35.282 -39.073 -28.201  0.00  0.00    -0.459 OA
BRANCH  36  37
ATOM     37  C   UNL     1      36.539 -39.501 -28.502  0.00  0.00    +0.304 C 
ATOM     38  C   UNL     1      36.467 -40.769 -29.297  0.00  0.00    +0.033 C 
ATOM     39  O   UNL     1      37.576 -38.954 -28.164  0.00  0.00    -0.251 OA
ENDBRANCH  36  37
ENDBRANCH   2  36
TORSDOF 7
ENDMDL
MODEL 6
REMARK VINA RESULT:    -6.400     26.041     29.858
REMARK INTER + INTRA:         -10.384
REMARK INTER:                  -8.954
REMARK INTRA:                  -1.430
REMARK UNBOUND:                -1.552
REMARK  Name = cpd185.pdb
REMARK  15 active torsions:
REMARK  status: ('A' for Active; 'I' for Inactive)
REMARK    1  A    between atoms: C_1  and  C_2
REMARK    2  A    between atoms: C_3  and  C_4
REMARK    3  A    between atoms: C_3  and  C_5
REMARK    4  A    between atoms: N_7  and  C_8
REMARK    5  A    between atoms: C_9  and  O_10
REMARK    6  A    between atoms: O_10  and  C_11
REMARK    7  A    between atoms: C_11  and  C_12
REMARK    8  A    between atoms: C_21  and  C_22
REMARK    9  A    between atoms: C_22  and  C_23
REMARK   10  A    between atoms: C_22  and  N_24
REMARK   11  A    between atoms: N_24  and  C_25
REMARK   12  A    between atoms: N_24  and  C_26
REMARK   13  A    between atoms: C_27  and  C_28
REMARK   14  A    between atoms: C_32  and  C_33
REMARK   15  A    between atoms: C_35  and  O_36
REMARK                            x       y       z     vdW  Elec       q    Type
REMARK                         _______ _______ _______ _____ _____    ______ ____
ROOT
ATOM      1  C   UNL     1      48.399 -45.795 -47.716  0.00  0.00    +0.086 C 
ATOM      2  C   UNL     1      48.561 -47.342 -47.686  0.00  0.00    +0.127 C 
ATOM      3  C   UNL     1      49.980 -47.818 -47.279  0.00  0.00    +0.004 C 
ATOM      4  C   UNL     1      50.150 -49.340 -47.457  0.00  0.00    -0.046 C 
ATOM      5  C   UNL     1      51.596 -49.820 -47.323  0.00  0.00    -0.046 C 
ATOM      6  C   UNL     1      52.473 -48.863 -46.517  0.00  0.00    -0.016 C 
ATOM      7  C   UNL     1      53.862 -49.396 -46.341  0.00  0.00    -0.064 C 
ATOM      8  C   UNL     1      54.367 -49.971 -45.239  0.00  0.00    -0.084 C 
ATOM      9  C   UNL     1      55.835 -50.235 -45.369  0.00  0.00    -0.029 C 
ATOM     10  C   UNL     1      56.236 -49.329 -46.559  0.00  0.00    -0.013 C 
ATOM     11  C   UNL     1      54.909 -49.233 -47.412  0.00  0.00    -0.006 C 
ATOM     12  C   UNL     1      54.891 -50.461 -48.366  0.00  0.00    -0.056 C 
ATOM     13  C   UNL     1      54.679 -47.976 -48.275  0.00  0.00    -0.043 C 
ATOM     14  C   UNL     1      53.803 -46.894 -47.646  0.00  0.00    -0.048 C 
ATOM     15  C   UNL     1      52.462 -47.391 -47.044  0.00  0.00    -0.029 C 
ATOM     16  C   UNL     1      51.169 -47.009 -47.886  0.00  0.00    -0.020 C 
ATOM     17  C   UNL     1      51.342 -47.306 -49.395  0.00  0.00    -0.059 C 
ATOM     18  C   UNL     1      50.918 -45.470 -47.750  0.00  0.00    -0.019 C 
ATOM     19  C   UNL     1      49.611 -45.104 -47.045  0.00  0.00    +0.077 C 
ENDROOT
BRANCH   1  22
ATOM     20  C   UNL     1      47.126 -44.414 -49.348  0.00  0.00    +0.240 C 
ATOM     21  O   UNL     1      46.558 -43.737 -48.500  0.00  0.00    -0.271 OA
ATOM     22  N   UNL     1      48.127 -45.306 -49.074  0.00  0.00    -0.303 N 
ATOM     23  H   UNL     1      48.686 -45.632 -49.816  0.00  0.00    +0.000 HD
BRANCH  20  26
ATOM     24  C   UNL     1      47.687 -44.558 -53.157  0.00  0.00    -0.046 C 
ATOM     25  C   UNL     1      47.776 -44.511 -51.666  0.00  0.00    -0.079 C 
ATOM     26  C   UNL     1      46.769 -44.333 -50.790  0.00  0.00    +0.007 C 
ATOM     27  C   UNL     1      45.315 -44.142 -51.073  0.00  0.00    -0.035 C 
ENDBRANCH  20  26
ENDBRANCH   1  22
BRANCH  10  28
ATOM     28  C   UNL     1      56.957 -48.013 -46.087  0.00  0.00    +0.011 C 
ATOM     29  C   UNL     1      57.714 -48.186 -44.754  0.00  0.00    -0.049 C 
BRANCH  28  30
ATOM     30  N   UNL     1      57.942 -47.478 -47.091  0.00  0.00    -0.305 N 
ATOM     31  C   UNL     1      59.328 -47.596 -46.611  0.00  0.00    -0.013 C 
ATOM     32  C   UNL     1      57.708 -46.085 -47.479  0.00  0.00    -0.013 C 
ATOM     33  H   UNL     1      57.798 -48.061 -47.916  0.00  0.00    +0.000 HD
ENDBRANCH  28  30
ENDBRANCH  10  28
BRANCH  19  34
ATOM     34  O   UNL     1      49.519 -43.681 -46.992  0.00  0.00    -0.390 OA
ATOM     35  H   UNL     1      49.067 -43.356 -47.786  0.00  0.00    +0.000 HD
ENDBRANCH  19  34
BRANCH   2  36
ATOM     36  O   UNL     1      48.190 -47.933 -48.955  0.00  0.00    -0.459 OA
BRANCH  36  37
ATOM     37  C   UNL     1      46.880 -48.275 -49.098  0.00  0.00    +0.304 C 
ATOM     38  C   UNL     1      46.533 -49.369 -48.135  0.00  0.00    +0.033 C 
ATOM     39  O   UNL     1      46.100 -47.784 -49.899  0.00  0.00    -0.251 OA
ENDBRANCH  36  37
ENDBRANCH   2  36
TORSDOF 7
ENDMDL
MODEL 7
REMARK VINA RESULT:    -6.369     18.400     20.902
REMARK INTER + INTRA:         -10.342
REMARK INTER:                  -9.043
REMARK INTRA:                  -1.298
REMARK UNBOUND:                -1.552
REMARK  Name = cpd185.pdb
REMARK  15 active torsions:
REMARK  status: ('A' for Active; 'I' for Inactive)
REMARK    1  A    between atoms: C_1  and  C_2
REMARK    2  A    between atoms: C_3  and  C_4
REMARK    3  A    between atoms: C_3  and  C_5
REMARK    4  A    between atoms: N_7  and  C_8
REMARK    5  A    between atoms: C_9  and  O_10
REMARK    6  A    between atoms: O_10  and  C_11
REMARK    7  A    between atoms: C_11  and  C_12
REMARK    8  A    between atoms: C_21  and  C_22
REMARK    9  A    between atoms: C_22  and  C_23
REMARK   10  A    between atoms: C_22  and  N_24
REMARK   11  A    between atoms: N_24  and  C_25
REMARK   12  A    between atoms: N_24  and  C_26
REMARK   13  A    between atoms: C_27  and  C_28
REMARK   14  A    between atoms: C_32  and  C_33
REMARK   15  A    between atoms: C_35  and  O_36
REMARK                            x       y       z     vdW  Elec       q    Type
REMARK                         _______ _______ _______ _____ _____    ______ ____
ROOT
ATOM      1  C   UNL     1      42.019 -20.817 -34.468  0.00  0.00    +0.086 C 
ATOM      2  C   UNL     1      42.008 -21.201 -35.976  0.00  0.00    +0.127 C 
ATOM      3  C   UNL     1      42.894 -20.287 -36.864  0.00  0.00    +0.004 C 
ATOM      4  C   UNL     1      42.696 -20.576 -38.365  0.00  0.00    -0.046 C 
ATOM      5  C   UNL     1      43.339 -19.537 -39.284  0.00  0.00    -0.046 C 
ATOM      6  C   UNL     1      44.478 -18.769 -38.616  0.00  0.00    -0.016 C 
ATOM      7  C   UNL     1      45.135 -17.813 -39.564  0.00  0.00    -0.064 C 
ATOM      8  C   UNL     1      46.307 -17.985 -40.193  0.00  0.00    -0.084 C 
ATOM      9  C   UNL     1      46.730 -16.755 -40.935  0.00  0.00    -0.029 C 
ATOM     10  C   UNL     1      45.844 -15.657 -40.299  0.00  0.00    -0.013 C 
ATOM     11  C   UNL     1      44.558 -16.447 -39.830  0.00  0.00    -0.006 C 
ATOM     12  C   UNL     1      43.592 -16.506 -41.047  0.00  0.00    -0.056 C 
ATOM     13  C   UNL     1      43.755 -15.902 -38.631  0.00  0.00    -0.043 C 
ATOM     14  C   UNL     1      44.071 -16.540 -37.280  0.00  0.00    -0.048 C 
ATOM     15  C   UNL     1      44.084 -18.091 -37.263  0.00  0.00    -0.029 C 
ATOM     16  C   UNL     1      42.839 -18.761 -36.536  0.00  0.00    -0.020 C 
ATOM     17  C   UNL     1      41.494 -18.137 -36.979  0.00  0.00    -0.059 C 
ATOM     18  C   UNL     1      42.968 -18.521 -34.995  0.00  0.00    -0.019 C 
ATOM     19  C   UNL     1      43.144 -19.797 -34.170  0.00  0.00    +0.077 C 
ENDROOT
BRANCH   1  22
ATOM     20  C   UNL     1      40.021 -20.993 -32.995  0.00  0.00    +0.240 C 
ATOM     21  O   UNL     1      40.539 -21.765 -32.198  0.00  0.00    -0.271 OA
ATOM     22  N   UNL     1      40.694 -20.374 -34.014  0.00  0.00    -0.303 N 
ATOM     23  H   UNL     1      40.274 -19.602 -34.458  0.00  0.00    +0.000 HD
BRANCH  20  26
ATOM     24  C   UNL     1      36.907 -18.724 -32.965  0.00  0.00    -0.046 C 
ATOM     25  C   UNL     1      38.268 -19.341 -32.939  0.00  0.00    -0.079 C 
ATOM     26  C   UNL     1      38.573 -20.652 -32.935  0.00  0.00    +0.007 C 
ATOM     27  C   UNL     1      37.646 -21.822 -32.958  0.00  0.00    -0.035 C 
ENDBRANCH  20  26
ENDBRANCH   1  22
BRANCH  10  28
ATOM     28  C   UNL     1      46.639 -14.778 -39.264  0.00  0.00    +0.011 C 
ATOM     29  C   UNL     1      48.167 -14.972 -39.358  0.00  0.00    -0.049 C 
BRANCH  28  30
ATOM     30  N   UNL     1      46.368 -13.304 -39.399  0.00  0.00    -0.305 N 
ATOM     31  C   UNL     1      45.776 -12.744 -38.173  0.00  0.00    -0.013 C 
ATOM     32  C   UNL     1      45.503 -12.953 -40.528  0.00  0.00    -0.013 C 
ATOM     33  H   UNL     1      47.287 -12.897 -39.571  0.00  0.00    +0.000 HD
ENDBRANCH  28  30
ENDBRANCH  10  28
BRANCH  19  34
ATOM     34  O   UNL     1      43.250 -19.426 -32.796  0.00  0.00    -0.390 OA
ATOM     35  H   UNL     1      42.406 -19.057 -32.495  0.00  0.00    +0.000 HD
ENDBRANCH  19  34
BRANCH   2  36
ATOM     36  O   UNL     1      40.658 -21.234 -36.499  0.00  0.00    -0.459 OA
BRANCH  36  37
ATOM     37  C   UNL     1      40.211 -22.446 -36.929  0.00  0.00    +0.304 C 
ATOM     38  C   UNL     1      39.191 -22.981 -35.971  0.00  0.00    +0.033 C 
ATOM     39  O   UNL     1      40.590 -23.028 -37.933  0.00  0.00    -0.251 OA
ENDBRANCH  36  37
ENDBRANCH   2  36
TORSDOF 7
ENDMDL
MODEL 8
REMARK VINA RESULT:    -6.230     21.909     24.078
REMARK INTER + INTRA:         -10.150
REMARK INTER:                  -8.665
REMARK INTRA:                  -1.486
REMARK UNBOUND:                -1.552
REMARK  Name = cpd185.pdb
REMARK  15 active torsions:
REMARK  status: ('A' for Active; 'I' for Inactive)
REMARK    1  A    between atoms: C_1  and  C_2
REMARK    2  A    between atoms: C_3  and  C_4
REMARK    3  A    between atoms: C_3  and  C_5
REMARK    4  A    between atoms: N_7  and  C_8
REMARK    5  A    between atoms: C_9  and  O_10
REMARK    6  A    between atoms: O_10  and  C_11
REMARK    7  A    between atoms: C_11  and  C_12
REMARK    8  A    between atoms: C_21  and  C_22
REMARK    9  A    between atoms: C_22  and  C_23
REMARK   10  A    between atoms: C_22  and  N_24
REMARK   11  A    between atoms: N_24  and  C_25
REMARK   12  A    between atoms: N_24  and  C_26
REMARK   13  A    between atoms: C_27  and  C_28
REMARK   14  A    between atoms: C_32  and  C_33
REMARK   15  A    between atoms: C_35  and  O_36
REMARK                            x       y       z     vdW  Elec       q    Type
REMARK                         _______ _______ _______ _____ _____    ______ ____
ROOT
ATOM      1  C   UNL     1      45.973 -19.601 -36.324  0.00  0.00    +0.086 C 
ATOM      2  C   UNL     1      45.477 -19.588 -37.798  0.00  0.00    +0.127 C 
ATOM      3  C   UNL     1      46.115 -18.472 -38.666  0.00  0.00    +0.004 C 
ATOM      4  C   UNL     1      45.451 -18.369 -40.053  0.00  0.00    -0.046 C 
ATOM      5  C   UNL     1      45.858 -17.125 -40.843  0.00  0.00    -0.046 C 
ATOM      6  C   UNL     1      47.199 -16.544 -40.398  0.00  0.00    -0.016 C 
ATOM      7  C   UNL     1      47.605 -15.373 -41.239  0.00  0.00    -0.064 C 
ATOM      8  C   UNL     1      48.515 -15.371 -42.225  0.00  0.00    -0.084 C 
ATOM      9  C   UNL     1      48.781 -13.989 -42.736  0.00  0.00    -0.029 C 
ATOM     10  C   UNL     1      48.211 -13.096 -41.607  0.00  0.00    -0.013 C 
ATOM     11  C   UNL     1      47.074 -13.989 -40.969  0.00  0.00    -0.006 C 
ATOM     12  C   UNL     1      45.783 -13.743 -41.800  0.00  0.00    -0.056 C 
ATOM     13  C   UNL     1      46.715 -13.774 -39.485  0.00  0.00    -0.043 C 
ATOM     14  C   UNL     1      47.380 -14.733 -38.499  0.00  0.00    -0.048 C 
ATOM     15  C   UNL     1      47.284 -16.237 -38.867  0.00  0.00    -0.029 C 
ATOM     16  C   UNL     1      46.274 -17.080 -37.975  0.00  0.00    -0.020 C 
ATOM     17  C   UNL     1      44.907 -16.373 -37.810  0.00  0.00    -0.059 C 
ATOM     18  C   UNL     1      46.881 -17.240 -36.541  0.00  0.00    -0.019 C 
ATOM     19  C   UNL     1      47.206 -18.682 -36.151  0.00  0.00    +0.077 C 
ENDROOT
BRANCH   1  22
ATOM     20  C   UNL     1      44.673 -20.026 -34.244  0.00  0.00    +0.240 C 
ATOM     21  O   UNL     1      45.496 -20.789 -33.754  0.00  0.00    -0.271 OA
ATOM     22  N   UNL     1      44.884 -19.299 -35.384  0.00  0.00    -0.303 N 
ATOM     23  H   UNL     1      44.282 -18.545 -35.583  0.00  0.00    +0.000 HD
BRANCH  20  26
ATOM     24  C   UNL     1      41.071 -20.907 -33.197  0.00  0.00    -0.046 C 
ATOM     25  C   UNL     1      42.448 -20.821 -33.772  0.00  0.00    -0.079 C 
ATOM     26  C   UNL     1      43.332 -19.815 -33.635  0.00  0.00    +0.007 C 
ATOM     27  C   UNL     1      43.175 -18.536 -32.879  0.00  0.00    -0.035 C 
ENDBRANCH  20  26
ENDBRANCH   1  22
BRANCH  10  28
ATOM     28  C   UNL     1      49.345 -12.504 -40.690  0.00  0.00    +0.011 C 
ATOM     29  C   UNL     1      50.747 -12.601 -41.327  0.00  0.00    -0.049 C 
BRANCH  28  30
ATOM     30  N   UNL     1      49.123 -11.062 -40.321  0.00  0.00    -0.305 N 
ATOM     31  C   UNL     1      48.964 -10.890 -38.868  0.00  0.00    -0.013 C 
ATOM     32  C   UNL     1      47.973 -10.442 -40.984  0.00  0.00    -0.013 C 
ATOM     33  H   UNL     1      49.965 -10.589 -40.648  0.00  0.00    +0.000 HD
ENDBRANCH  28  30
ENDBRANCH  10  28
BRANCH  19  34
ATOM     34  O   UNL     1      47.751 -18.673 -34.832  0.00  0.00    -0.390 OA
ATOM     35  H   UNL     1      48.347 -19.430 -34.724  0.00  0.00    +0.000 HD
ENDBRANCH  19  34
BRANCH   2  36
ATOM     36  O   UNL     1      44.033 -19.497 -37.866  0.00  0.00    -0.459 OA
BRANCH  36  37
ATOM     37  C   UNL     1      43.381 -20.611 -38.300  0.00  0.00    +0.304 C 
ATOM     38  C   UNL     1      42.264 -20.946 -37.359  0.00  0.00    +0.033 C 
ATOM     39  O   UNL     1      43.667 -21.259 -39.294  0.00  0.00    -0.251 OA
ENDBRANCH  36  37
ENDBRANCH   2  36
TORSDOF 7
ENDMDL
MODEL 9
REMARK VINA RESULT:    -6.147     18.852     20.872
REMARK INTER + INTRA:         -10.035
REMARK INTER:                  -9.082
REMARK INTRA:                  -0.953
REMARK UNBOUND:                -1.552
REMARK  Name = cpd185.pdb
REMARK  15 active torsions:
REMARK  status: ('A' for Active; 'I' for Inactive)
REMARK    1  A    between atoms: C_1  and  C_2
REMARK    2  A    between atoms: C_3  and  C_4
REMARK    3  A    between atoms: C_3  and  C_5
REMARK    4  A    between atoms: N_7  and  C_8
REMARK    5  A    between atoms: C_9  and  O_10
REMARK    6  A    between atoms: O_10  and  C_11
REMARK    7  A    between atoms: C_11  and  C_12
REMARK    8  A    between atoms: C_21  and  C_22
REMARK    9  A    between atoms: C_22  and  C_23
REMARK   10  A    between atoms: C_22  and  N_24
REMARK   11  A    between atoms: N_24  and  C_25
REMARK   12  A    between atoms: N_24  and  C_26
REMARK   13  A    between atoms: C_27  and  C_28
REMARK   14  A    between atoms: C_32  and  C_33
REMARK   15  A    between atoms: C_35  and  O_36
REMARK                            x       y       z     vdW  Elec       q    Type
REMARK                         _______ _______ _______ _____ _____    ______ ____
ROOT
ATOM      1  C   UNL     1      44.182 -19.113 -40.535  0.00  0.00    +0.086 C 
ATOM      2  C   UNL     1      42.949 -19.622 -39.734  0.00  0.00    +0.127 C 
ATOM      3  C   UNL     1      42.673 -18.827 -38.431  0.00  0.00    +0.004 C 
ATOM      4  C   UNL     1      41.574 -19.487 -37.575  0.00  0.00    -0.046 C 
ATOM      5  C   UNL     1      41.448 -18.898 -36.170  0.00  0.00    -0.046 C 
ATOM      6  C   UNL     1      41.994 -17.475 -36.065  0.00  0.00    -0.016 C 
ATOM      7  C   UNL     1      41.789 -16.899 -34.697  0.00  0.00    -0.064 C 
ATOM      8  C   UNL     1      40.848 -16.016 -34.331  0.00  0.00    -0.084 C 
ATOM      9  C   UNL     1      41.044 -15.540 -32.925  0.00  0.00    -0.029 C 
ATOM     10  C   UNL     1      42.511 -15.943 -32.635  0.00  0.00    -0.013 C 
ATOM     11  C   UNL     1      42.740 -17.198 -33.567  0.00  0.00    -0.006 C 
ATOM     12  C   UNL     1      42.253 -18.445 -32.777  0.00  0.00    -0.056 C 
ATOM     13  C   UNL     1      44.170 -17.495 -34.062  0.00  0.00    -0.043 C 
ATOM     14  C   UNL     1      44.505 -16.978 -35.460  0.00  0.00    -0.048 C 
ATOM     15  C   UNL     1      43.468 -17.319 -36.562  0.00  0.00    -0.029 C 
ATOM     16  C   UNL     1      43.931 -18.437 -37.592  0.00  0.00    -0.020 C 
ATOM     17  C   UNL     1      44.541 -19.671 -36.884  0.00  0.00    -0.059 C 
ATOM     18  C   UNL     1      45.048 -17.842 -38.514  0.00  0.00    -0.019 C 
ATOM     19  C   UNL     1      44.662 -17.746 -39.990  0.00  0.00    +0.077 C 
ENDROOT
BRANCH   1  22
ATOM     20  C   UNL     1      45.546 -20.813 -41.736  0.00  0.00    +0.240 C 
ATOM     21  O   UNL     1      45.178 -20.478 -42.855  0.00  0.00    -0.271 OA
ATOM     22  N   UNL     1      45.245 -20.125 -40.591  0.00  0.00    -0.303 N 
ATOM     23  H   UNL     1      45.761 -20.316 -39.775  0.00  0.00    +0.000 HD
BRANCH  20  26
ATOM     24  C   UNL     1      47.435 -24.044 -42.651  0.00  0.00    -0.046 C 
ATOM     25  C   UNL     1      46.587 -22.815 -42.580  0.00  0.00    -0.079 C 
ATOM     26  C   UNL     1      46.370 -22.030 -41.508  0.00  0.00    +0.007 C 
ATOM     27  C   UNL     1      46.914 -22.175 -40.124  0.00  0.00    -0.035 C 
ENDBRANCH  20  26
ENDBRANCH   1  22
BRANCH  10  28
ATOM     28  C   UNL     1      43.492 -14.715 -32.724  0.00  0.00    +0.011 C 
ATOM     29  C   UNL     1      43.187 -13.787 -33.918  0.00  0.00    -0.049 C 
BRANCH  28  30
ATOM     30  N   UNL     1      43.495 -13.861 -31.486  0.00  0.00    -0.305 N 
ATOM     31  C   UNL     1      42.982 -12.509 -31.756  0.00  0.00    -0.013 C 
ATOM     32  C   UNL     1      44.807 -13.734 -30.847  0.00  0.00    -0.013 C 
ATOM     33  H   UNL     1      42.879 -14.356 -30.840  0.00  0.00    +0.000 HD
ENDBRANCH  28  30
ENDBRANCH  10  28
BRANCH  19  34
ATOM     34  O   UNL     1      45.766 -17.187 -40.701  0.00  0.00    -0.390 OA
ATOM     35  H   UNL     1      45.549 -17.134 -41.645  0.00  0.00    +0.000 HD
ENDBRANCH  19  34
BRANCH   2  36
ATOM     36  O   UNL     1      43.066 -21.034 -39.432  0.00  0.00    -0.459 OA
BRANCH  36  37
ATOM     37  C   UNL     1      42.075 -21.834 -39.913  0.00  0.00    +0.304 C 
ATOM     38  C   UNL     1      42.035 -21.751 -41.408  0.00  0.00    +0.033 C 
ATOM     39  O   UNL     1      41.315 -22.509 -39.236  0.00  0.00    -0.251 OA
ENDBRANCH  36  37
ENDBRANCH   2  36
TORSDOF 7
ENDMDL
MODEL 10
REMARK VINA RESULT:    -6.122     17.432     20.838
REMARK INTER + INTRA:         -10.001
REMARK INTER:                  -8.828
REMARK INTRA:                  -1.173
REMARK UNBOUND:                -1.552
REMARK  Name = cpd185.pdb
REMARK  15 active torsions:
REMARK  status: ('A' for Active; 'I' for Inactive)
REMARK    1  A    between atoms: C_1  and  C_2
REMARK    2  A    between atoms: C_3  and  C_4
REMARK    3  A    between atoms: C_3  and  C_5
REMARK    4  A    between atoms: N_7  and  C_8
REMARK    5  A    between atoms: C_9  and  O_10
REMARK    6  A    between atoms: O_10  and  C_11
REMARK    7  A    between atoms: C_11  and  C_12
REMARK    8  A    between atoms: C_21  and  C_22
REMARK    9  A    between atoms: C_22  and  C_23
REMARK   10  A    between atoms: C_22  and  N_24
REMARK   11  A    between atoms: N_24  and  C_25
REMARK   12  A    between atoms: N_24  and  C_26
REMARK   13  A    between atoms: C_27  and  C_28
REMARK   14  A    between atoms: C_32  and  C_33
REMARK   15  A    between atoms: C_35  and  O_36
REMARK                            x       y       z     vdW  Elec       q    Type
REMARK                         _______ _______ _______ _____ _____    ______ ____
ROOT
ATOM      1  C   UNL     1      40.000 -19.908 -34.941  0.00  0.00    +0.086 C 
ATOM      2  C   UNL     1      39.560 -19.554 -36.391  0.00  0.00    +0.127 C 
ATOM      3  C   UNL     1      40.607 -19.926 -37.474  0.00  0.00    +0.004 C 
ATOM      4  C   UNL     1      40.219 -19.379 -38.862  0.00  0.00    -0.046 C 
ATOM      5  C   UNL     1      41.334 -19.487 -39.903  0.00  0.00    -0.046 C 
ATOM      6  C   UNL     1      42.360 -20.569 -39.572  0.00  0.00    -0.016 C 
ATOM      7  C   UNL     1      43.396 -20.701 -40.645  0.00  0.00    -0.064 C 
ATOM      8  C   UNL     1      43.458 -21.654 -41.588  0.00  0.00    -0.084 C 
ATOM      9  C   UNL     1      44.718 -21.564 -42.391  0.00  0.00    -0.029 C 
ATOM     10  C   UNL     1      45.621 -20.675 -41.503  0.00  0.00    -0.013 C 
ATOM     11  C   UNL     1      44.590 -19.783 -40.704  0.00  0.00    -0.006 C 
ATOM     12  C   UNL     1      44.269 -18.550 -41.595  0.00  0.00    -0.056 C 
ATOM     13  C   UNL     1      44.996 -19.254 -39.314  0.00  0.00    -0.043 C 
ATOM     14  C   UNL     1      44.500 -20.075 -38.124  0.00  0.00    -0.048 C 
ATOM     15  C   UNL     1      42.991 -20.435 -38.147  0.00  0.00    -0.029 C 
ATOM     16  C   UNL     1      42.096 -19.630 -37.110  0.00  0.00    -0.020 C 
ATOM     17  C   UNL     1      42.392 -18.110 -37.135  0.00  0.00    -0.059 C 
ATOM     18  C   UNL     1      42.424 -20.134 -35.665  0.00  0.00    -0.019 C 
ATOM     19  C   UNL     1      41.254 -20.816 -34.954  0.00  0.00    +0.077 C 
ENDROOT
BRANCH   1  22
ATOM     20  C   UNL     1      39.217 -18.300 -33.210  0.00  0.00    +0.240 C 
ATOM     21  O   UNL     1      38.312 -19.014 -32.798  0.00  0.00    -0.271 OA
ATOM     22  N   UNL     1      40.161 -18.703 -34.116  0.00  0.00    -0.303 N 
ATOM     23  H   UNL     1      40.979 -18.164 -34.219  0.00  0.00    +0.000 HD
BRANCH  20  26
ATOM     24  C   UNL     1      39.797 -14.506 -33.553  0.00  0.00    -0.046 C 
ATOM     25  C   UNL     1      39.662 -15.986 -33.713  0.00  0.00    -0.079 C 
ATOM     26  C   UNL     1      39.379 -16.892 -32.758  0.00  0.00    +0.007 C 
ATOM     27  C   UNL     1      39.125 -16.661 -31.305  0.00  0.00    -0.035 C 
ENDBRANCH  20  26
ENDBRANCH   1  22
BRANCH  10  28
ATOM     28  C   UNL     1      46.697 -21.515 -40.719  0.00  0.00    +0.011 C 
ATOM     29  C   UNL     1      46.672 -23.014 -41.085  0.00  0.00    -0.049 C 
BRANCH  28  30
ATOM     30  N   UNL     1      48.105 -21.029 -40.929  0.00  0.00    -0.305 N 
ATOM     31  C   UNL     1      48.222 -20.209 -42.145  0.00  0.00    -0.013 C 
ATOM     32  C   UNL     1      49.105 -22.097 -40.997  0.00  0.00    -0.013 C 
ATOM     33  H   UNL     1      48.301 -20.469 -40.099  0.00  0.00    +0.000 HD
ENDBRANCH  28  30
ENDBRANCH  10  28
BRANCH  19  34
ATOM     34  O   UNL     1      41.696 -21.223 -33.660  0.00  0.00    -0.390 OA
ATOM     35  H   UNL     1      42.547 -20.802 -33.463  0.00  0.00    +0.000 HD
ENDBRANCH  19  34
BRANCH   2  36
ATOM     36  O   UNL     1      39.211 -18.153 -36.506  0.00  0.00    -0.459 OA
BRANCH  36  37
ATOM     37  C   UNL     1      37.912 -17.883 -36.815  0.00  0.00    +0.304 C 
ATOM     38  C   UNL     1      37.036 -19.009 -36.358  0.00  0.00    +0.033 C 
ATOM     39  O   UNL     1      37.512 -16.885 -37.395  0.00  0.00    -0.251 OA
ENDBRANCH  36  37
ENDBRANCH   2  36
TORSDOF 7
ENDMDL
MODEL 11
REMARK VINA RESULT:    -6.074     28.661     32.107
REMARK INTER + INTRA:          -9.935
REMARK INTER:                  -8.495
REMARK INTRA:                  -1.441
REMARK UNBOUND:                -1.552
REMARK  Name = cpd185.pdb
REMARK  15 active torsions:
REMARK  status: ('A' for Active; 'I' for Inactive)
REMARK    1  A    between atoms: C_1  and  C_2
REMARK    2  A    between atoms: C_3  and  C_4
REMARK    3  A    between atoms: C_3  and  C_5
REMARK    4  A    between atoms: N_7  and  C_8
REMARK    5  A    between atoms: C_9  and  O_10
REMARK    6  A    between atoms: O_10  and  C_11
REMARK    7  A    between atoms: C_11  and  C_12
REMARK    8  A    between atoms: C_21  and  C_22
REMARK    9  A    between atoms: C_22  and  C_23
REMARK   10  A    between atoms: C_22  and  N_24
REMARK   11  A    between atoms: N_24  and  C_25
REMARK   12  A    between atoms: N_24  and  C_26
REMARK   13  A    between atoms: C_27  and  C_28
REMARK   14  A    between atoms: C_32  and  C_33
REMARK   15  A    between atoms: C_35  and  O_36
REMARK                            x       y       z     vdW  Elec       q    Type
REMARK                         _______ _______ _______ _____ _____    ______ ____
ROOT
ATOM      1  C   UNL     1      48.359 -31.521 -56.106  0.00  0.00    +0.086 C 
ATOM      2  C   UNL     1      48.861 -31.143 -54.682  0.00  0.00    +0.127 C 
ATOM      3  C   UNL     1      50.406 -31.086 -54.555  0.00  0.00    +0.004 C 
ATOM      4  C   UNL     1      50.857 -30.908 -53.092  0.00  0.00    -0.046 C 
ATOM      5  C   UNL     1      52.358 -31.109 -52.880  0.00  0.00    -0.046 C 
ATOM      6  C   UNL     1      53.178 -30.889 -54.150  0.00  0.00    -0.016 C 
ATOM      7  C   UNL     1      54.648 -31.019 -53.893  0.00  0.00    -0.064 C 
ATOM      8  C   UNL     1      55.532 -30.018 -53.766  0.00  0.00    -0.084 C 
ATOM      9  C   UNL     1      56.939 -30.523 -53.677  0.00  0.00    -0.029 C 
ATOM     10  C   UNL     1      56.812 -31.970 -54.213  0.00  0.00    -0.013 C 
ATOM     11  C   UNL     1      55.325 -32.366 -53.857  0.00  0.00    -0.006 C 
ATOM     12  C   UNL     1      55.336 -32.915 -52.402  0.00  0.00    -0.056 C 
ATOM     13  C   UNL     1      54.609 -33.409 -54.738  0.00  0.00    -0.043 C 
ATOM     14  C   UNL     1      53.706 -32.842 -55.832  0.00  0.00    -0.048 C 
ATOM     15  C   UNL     1      52.707 -31.748 -55.369  0.00  0.00    -0.029 C 
ATOM     16  C   UNL     1      51.191 -32.218 -55.290  0.00  0.00    -0.020 C 
ATOM     17  C   UNL     1      51.035 -33.576 -54.563  0.00  0.00    -0.059 C 
ATOM     18  C   UNL     1      50.649 -32.414 -56.745  0.00  0.00    -0.019 C 
ATOM     19  C   UNL     1      49.518 -31.460 -57.130  0.00  0.00    +0.077 C 
ENDROOT
BRANCH   1  22
ATOM     20  C   UNL     1      46.329 -32.918 -56.456  0.00  0.00    +0.240 C 
ATOM     21  O   UNL     1      45.703 -32.053 -57.055  0.00  0.00    -0.271 OA
ATOM     22  N   UNL     1      47.648 -32.806 -56.105  0.00  0.00    -0.303 N 
ATOM     23  H   UNL     1      48.138 -33.619 -55.842  0.00  0.00    +0.000 HD
BRANCH  20  26
ATOM     24  C   UNL     1      46.188 -36.552 -55.183  0.00  0.00    -0.046 C 
ATOM     25  C   UNL     1      46.543 -35.198 -55.708  0.00  0.00    -0.079 C 
ATOM     26  C   UNL     1      45.702 -34.201 -56.039  0.00  0.00    +0.007 C 
ATOM     27  C   UNL     1      44.210 -34.181 -55.968  0.00  0.00    -0.035 C 
ENDBRANCH  20  26
ENDBRANCH   1  22
BRANCH  10  28
ATOM     28  C   UNL     1      57.320 -32.101 -55.696  0.00  0.00    +0.011 C 
ATOM     29  C   UNL     1      58.118 -30.869 -56.171  0.00  0.00    -0.049 C 
BRANCH  28  30
ATOM     30  N   UNL     1      58.188 -33.308 -55.926  0.00  0.00    -0.305 N 
ATOM     31  C   UNL     1      57.562 -34.259 -56.858  0.00  0.00    -0.013 C 
ATOM     32  C   UNL     1      58.546 -34.032 -54.704  0.00  0.00    -0.013 C 
ATOM     33  H   UNL     1      59.045 -32.926 -56.326  0.00  0.00    +0.000 HD
ENDBRANCH  28  30
ENDBRANCH  10  28
BRANCH  19  34
ATOM     34  O   UNL     1      49.130 -31.750 -58.472  0.00  0.00    -0.390 OA
ATOM     35  H   UNL     1      49.099 -30.928 -58.984  0.00  0.00    +0.000 HD
ENDBRANCH  19  34
BRANCH   2  36
ATOM     36  O   UNL     1      48.319 -32.038 -53.680  0.00  0.00    -0.459 OA
BRANCH  36  37
ATOM     37  C   UNL     1      47.110 -31.691 -53.158  0.00  0.00    +0.304 C 
ATOM     38  C   UNL     1      47.139 -30.259 -52.719  0.00  0.00    +0.033 C 
ATOM     39  O   UNL     1      46.147 -32.432 -53.042  0.00  0.00    -0.251 OA
ENDBRANCH  36  37
ENDBRANCH   2  36
TORSDOF 7
ENDMDL
MODEL 12
REMARK VINA RESULT:    -6.029      6.072      9.369
REMARK INTER + INTRA:          -9.873
REMARK INTER:                  -8.461
REMARK INTRA:                  -1.412
REMARK UNBOUND:                -1.552
REMARK  Name = cpd185.pdb
REMARK  15 active torsions:
REMARK  status: ('A' for Active; 'I' for Inactive)
REMARK    1  A    between atoms: C_1  and  C_2
REMARK    2  A    between atoms: C_3  and  C_4
REMARK    3  A    between atoms: C_3  and  C_5
REMARK    4  A    between atoms: N_7  and  C_8
REMARK    5  A    between atoms: C_9  and  O_10
REMARK    6  A    between atoms: O_10  and  C_11
REMARK    7  A    between atoms: C_11  and  C_12
REMARK    8  A    between atoms: C_21  and  C_22
REMARK    9  A    between atoms: C_22  and  C_23
REMARK   10  A    between atoms: C_22  and  N_24
REMARK   11  A    between atoms: N_24  and  C_25
REMARK   12  A    between atoms: N_24  and  C_26
REMARK   13  A    between atoms: C_27  and  C_28
REMARK   14  A    between atoms: C_32  and  C_33
REMARK   15  A    between atoms: C_35  and  O_36
REMARK                            x       y       z     vdW  Elec       q    Type
REMARK                         _______ _______ _______ _____ _____    ______ ____
ROOT
ATOM      1  C   UNL     1      32.765 -38.573 -22.446  0.00  0.00    +0.086 C 
ATOM      2  C   UNL     1      32.449 -39.630 -23.543  0.00  0.00    +0.127 C 
ATOM      3  C   UNL     1      33.165 -39.368 -24.894  0.00  0.00    +0.004 C 
ATOM      4  C   UNL     1      32.670 -40.318 -26.002  0.00  0.00    -0.046 C 
ATOM      5  C   UNL     1      33.145 -39.934 -27.404  0.00  0.00    -0.046 C 
ATOM      6  C   UNL     1      34.412 -39.080 -27.394  0.00  0.00    -0.016 C 
ATOM      7  C   UNL     1      34.893 -38.782 -28.781  0.00  0.00    -0.064 C 
ATOM      8  C   UNL     1      35.914 -39.373 -29.420  0.00  0.00    -0.084 C 
ATOM      9  C   UNL     1      36.213 -38.712 -30.729  0.00  0.00    -0.029 C 
ATOM     10  C   UNL     1      35.495 -37.347 -30.588  0.00  0.00    -0.013 C 
ATOM     11  C   UNL     1      34.307 -37.656 -29.593  0.00  0.00    -0.006 C 
ATOM     12  C   UNL     1      33.121 -38.180 -30.450  0.00  0.00    -0.056 C 
ATOM     13  C   UNL     1      33.769 -36.511 -28.711  0.00  0.00    -0.043 C 
ATOM     14  C   UNL     1      34.329 -36.452 -27.291  0.00  0.00    -0.048 C 
ATOM     15  C   UNL     1      34.307 -37.793 -26.511  0.00  0.00    -0.029 C 
ATOM     16  C   UNL     1      33.213 -37.879 -25.361  0.00  0.00    -0.020 C 
ATOM     17  C   UNL     1      31.823 -37.391 -25.835  0.00  0.00    -0.059 C 
ATOM     18  C   UNL     1      33.648 -36.944 -24.183  0.00  0.00    -0.019 C 
ATOM     19  C   UNL     1      33.951 -37.676 -22.875  0.00  0.00    +0.077 C 
ENDROOT
BRANCH   1  22
ATOM     20  C   UNL     1      31.167 -37.671 -20.765  0.00  0.00    +0.240 C 
ATOM     21  O   UNL     1      31.881 -37.904 -19.798  0.00  0.00    -0.271 OA
ATOM     22  N   UNL     1      31.566 -37.813 -22.067  0.00  0.00    -0.303 N 
ATOM     23  H   UNL     1      31.029 -37.391 -22.775  0.00  0.00    +0.000 HD
BRANCH  20  26
ATOM     24  C   UNL     1      28.176 -35.889 -19.115  0.00  0.00    -0.046 C 
ATOM     25  C   UNL     1      29.473 -36.531 -19.485  0.00  0.00    -0.079 C 
ATOM     26  C   UNL     1      29.762 -37.205 -20.614  0.00  0.00    +0.007 C 
ATOM     27  C   UNL     1      28.874 -37.483 -21.782  0.00  0.00    -0.035 C 
ENDBRANCH  20  26
ENDBRANCH   1  22
BRANCH  10  28
ATOM     28  C   UNL     1      36.499 -36.179 -30.266  0.00  0.00    +0.011 C 
ATOM     29  C   UNL     1      37.957 -36.661 -30.117  0.00  0.00    -0.049 C 
BRANCH  28  30
ATOM     30  N   UNL     1      36.495 -35.085 -31.299  0.00  0.00    -0.305 N 
ATOM     31  C   UNL     1      37.858 -34.621 -31.605  0.00  0.00    -0.013 C 
ATOM     32  C   UNL     1      35.685 -33.920 -30.937  0.00  0.00    -0.013 C 
ATOM     33  H   UNL     1      36.072 -35.519 -32.119  0.00  0.00    +0.000 HD
ENDBRANCH  28  30
ENDBRANCH  10  28
BRANCH  19  34
ATOM     34  O   UNL     1      34.334 -36.705 -21.902  0.00  0.00    -0.390 OA
ATOM     35  H   UNL     1      33.579 -36.510 -21.326  0.00  0.00    +0.000 HD
ENDBRANCH  19  34
BRANCH   2  36
ATOM     36  O   UNL     1      31.022 -39.752 -23.759  0.00  0.00    -0.459 OA
BRANCH  36  37
ATOM     37  C   UNL     1      30.399 -40.763 -23.092  0.00  0.00    +0.304 C 
ATOM     38  C   UNL     1      29.870 -41.767 -24.071  0.00  0.00    +0.033 C 
ATOM     39  O   UNL     1      30.267 -40.840 -21.881  0.00  0.00    -0.251 OA
ENDBRANCH  36  37
ENDBRANCH   2  36
TORSDOF 7
ENDMDL
MODEL 13
REMARK VINA RESULT:    -5.994     26.473     29.596
REMARK INTER + INTRA:          -9.824
REMARK INTER:                  -8.363
REMARK INTRA:                  -1.461
REMARK UNBOUND:                -1.552
REMARK  Name = cpd185.pdb
REMARK  15 active torsions:
REMARK  status: ('A' for Active; 'I' for Inactive)
REMARK    1  A    between atoms: C_1  and  C_2
REMARK    2  A    between atoms: C_3  and  C_4
REMARK    3  A    between atoms: C_3  and  C_5
REMARK    4  A    between atoms: N_7  and  C_8
REMARK    5  A    between atoms: C_9  and  O_10
REMARK    6  A    between atoms: O_10  and  C_11
REMARK    7  A    between atoms: C_11  and  C_12
REMARK    8  A    between atoms: C_21  and  C_22
REMARK    9  A    between atoms: C_22  and  C_23
REMARK   10  A    between atoms: C_22  and  N_24
REMARK   11  A    between atoms: N_24  and  C_25
REMARK   12  A    between atoms: N_24  and  C_26
REMARK   13  A    between atoms: C_27  and  C_28
REMARK   14  A    between atoms: C_32  and  C_33
REMARK   15  A    between atoms: C_35  and  O_36
REMARK                            x       y       z     vdW  Elec       q    Type
REMARK                         _______ _______ _______ _____ _____    ______ ____
ROOT
ATOM      1  C   UNL     1      47.011 -45.843 -49.119  0.00  0.00    +0.086 C 
ATOM      2  C   UNL     1      47.205 -47.332 -48.710  0.00  0.00    +0.127 C 
ATOM      3  C   UNL     1      48.609 -47.646 -48.130  0.00  0.00    +0.004 C 
ATOM      4  C   UNL     1      48.822 -49.160 -47.928  0.00  0.00    -0.046 C 
ATOM      5  C   UNL     1      50.268 -49.543 -47.612  0.00  0.00    -0.046 C 
ATOM      6  C   UNL     1      51.078 -48.391 -47.017  0.00  0.00    -0.016 C 
ATOM      7  C   UNL     1      52.466 -48.817 -46.649  0.00  0.00    -0.064 C 
ATOM      8  C   UNL     1      52.920 -49.094 -45.418  0.00  0.00    -0.084 C 
ATOM      9  C   UNL     1      54.399 -49.329 -45.408  0.00  0.00    -0.029 C 
ATOM     10  C   UNL     1      54.846 -48.721 -46.759  0.00  0.00    -0.013 C 
ATOM     11  C   UNL     1      53.568 -48.878 -47.675  0.00  0.00    -0.006 C 
ATOM     12  C   UNL     1      53.631 -50.298 -48.305  0.00  0.00    -0.056 C 
ATOM     13  C   UNL     1      53.359 -47.872 -48.825  0.00  0.00    -0.043 C 
ATOM     14  C   UNL     1      52.425 -46.703 -48.519  0.00  0.00    -0.048 C 
ATOM     15  C   UNL     1      51.063 -47.088 -47.882  0.00  0.00    -0.029 C 
ATOM     16  C   UNL     1      49.812 -46.964 -48.854  0.00  0.00    -0.020 C 
ATOM     17  C   UNL     1      50.077 -47.607 -50.237  0.00  0.00    -0.059 C 
ATOM     18  C   UNL     1      49.519 -45.447 -49.105  0.00  0.00    -0.019 C 
ATOM     19  C   UNL     1      48.167 -44.970 -48.575  0.00  0.00    +0.077 C 
ENDROOT
BRANCH   1  22
ATOM     20  C   UNL     1      45.823 -44.909 -51.097  0.00  0.00    +0.240 C 
ATOM     21  O   UNL     1      45.222 -44.048 -50.468  0.00  0.00    -0.271 OA
ATOM     22  N   UNL     1      46.805 -45.703 -50.567  0.00  0.00    -0.303 N 
ATOM     23  H   UNL     1      47.395 -46.198 -51.179  0.00  0.00    +0.000 HD
BRANCH  20  26
ATOM     24  C   UNL     1      45.483 -47.010 -54.308  0.00  0.00    -0.046 C 
ATOM     25  C   UNL     1      45.759 -46.444 -52.954  0.00  0.00    -0.079 C 
ATOM     26  C   UNL     1      45.534 -45.186 -52.530  0.00  0.00    +0.007 C 
ATOM     27  C   UNL     1      44.955 -44.038 -53.291  0.00  0.00    -0.035 C 
ENDBRANCH  20  26
ENDBRANCH   1  22
BRANCH  10  28
ATOM     28  C   UNL     1      55.510 -47.305 -46.583  0.00  0.00    +0.011 C 
ATOM     29  C   UNL     1      55.469 -46.798 -45.126  0.00  0.00    -0.049 C 
BRANCH  28  30
ATOM     30  N   UNL     1      56.946 -47.259 -47.029  0.00  0.00    -0.305 N 
ATOM     31  C   UNL     1      57.136 -47.934 -48.323  0.00  0.00    -0.013 C 
ATOM     32  C   UNL     1      57.893 -47.833 -46.070  0.00  0.00    -0.013 C 
ATOM     33  H   UNL     1      57.149 -46.262 -47.112  0.00  0.00    +0.000 HD
ENDBRANCH  28  30
ENDBRANCH  10  28
BRANCH  19  34
ATOM     34  O   UNL     1      48.040 -43.579 -48.869  0.00  0.00    -0.390 OA
ATOM     35  H   UNL     1      47.790 -43.100 -48.065  0.00  0.00    +0.000 HD
ENDBRANCH  19  34
BRANCH   2  36
ATOM     36  O   UNL     1      46.920 -48.221 -49.816  0.00  0.00    -0.459 OA
BRANCH  36  37
ATOM     37  C   UNL     1      45.766 -48.940 -49.726  0.00  0.00    +0.304 C 
ATOM     38  C   UNL     1      45.505 -49.646 -51.022  0.00  0.00    +0.033 C 
ATOM     39  O   UNL     1      45.037 -48.994 -48.749  0.00  0.00    -0.251 OA
ENDBRANCH  36  37
ENDBRANCH   2  36
TORSDOF 7
ENDMDL
MODEL 14
REMARK VINA RESULT:    -5.964      3.633      8.943
REMARK INTER + INTRA:          -9.783
REMARK INTER:                  -8.359
REMARK INTRA:                  -1.424
REMARK UNBOUND:                -1.552
REMARK  Name = cpd185.pdb
REMARK  15 active torsions:
REMARK  status: ('A' for Active; 'I' for Inactive)
REMARK    1  A    between atoms: C_1  and  C_2
REMARK    2  A    between atoms: C_3  and  C_4
REMARK    3  A    between atoms: C_3  and  C_5
REMARK    4  A    between atoms: N_7  and  C_8
REMARK    5  A    between atoms: C_9  and  O_10
REMARK    6  A    between atoms: O_10  and  C_11
REMARK    7  A    between atoms: C_11  and  C_12
REMARK    8  A    between atoms: C_21  and  C_22
REMARK    9  A    between atoms: C_22  and  C_23
REMARK   10  A    between atoms: C_22  and  N_24
REMARK   11  A    between atoms: N_24  and  C_25
REMARK   12  A    between atoms: N_24  and  C_26
REMARK   13  A    between atoms: C_27  and  C_28
REMARK   14  A    between atoms: C_32  and  C_33
REMARK   15  A    between atoms: C_35  and  O_36
REMARK                            x       y       z     vdW  Elec       q    Type
REMARK                         _______ _______ _______ _____ _____    ______ ____
ROOT
ATOM      1  C   UNL     1      33.850 -34.875 -30.281  0.00  0.00    +0.086 C 
ATOM      2  C   UNL     1      33.826 -36.282 -29.617  0.00  0.00    +0.127 C 
ATOM      3  C   UNL     1      33.794 -37.455 -30.630  0.00  0.00    +0.004 C 
ATOM      4  C   UNL     1      33.570 -38.812 -29.934  0.00  0.00    -0.046 C 
ATOM      5  C   UNL     1      33.269 -39.960 -30.898  0.00  0.00    -0.046 C 
ATOM      6  C   UNL     1      33.782 -39.703 -32.314  0.00  0.00    -0.016 C 
ATOM      7  C   UNL     1      33.538 -40.874 -33.216  0.00  0.00    -0.064 C 
ATOM      8  C   UNL     1      34.441 -41.787 -33.607  0.00  0.00    -0.084 C 
ATOM      9  C   UNL     1      33.882 -42.720 -34.636  0.00  0.00    -0.029 C 
ATOM     10  C   UNL     1      32.629 -41.960 -35.134  0.00  0.00    -0.013 C 
ATOM     11  C   UNL     1      32.206 -41.087 -33.887  0.00  0.00    -0.006 C 
ATOM     12  C   UNL     1      31.297 -41.979 -32.995  0.00  0.00    -0.056 C 
ATOM     13  C   UNL     1      31.453 -39.764 -34.136  0.00  0.00    -0.043 C 
ATOM     14  C   UNL     1      32.316 -38.504 -34.140  0.00  0.00    -0.048 C 
ATOM     15  C   UNL     1      33.287 -38.357 -32.938  0.00  0.00    -0.029 C 
ATOM     16  C   UNL     1      32.865 -37.259 -31.870  0.00  0.00    -0.020 C 
ATOM     17  C   UNL     1      31.372 -37.364 -31.477  0.00  0.00    -0.059 C 
ATOM     18  C   UNL     1      33.074 -35.840 -32.498  0.00  0.00    -0.019 C 
ATOM     19  C   UNL     1      34.134 -34.990 -31.798  0.00  0.00    +0.077 C 
ENDROOT
BRANCH   1  22
ATOM     20  C   UNL     1      32.663 -32.781 -29.649  0.00  0.00    +0.240 C 
ATOM     21  O   UNL     1      33.622 -32.046 -29.849  0.00  0.00    -0.271 OA
ATOM     22  N   UNL     1      32.634 -34.110 -29.971  0.00  0.00    -0.303 N 
ATOM     23  H   UNL     1      31.764 -34.572 -29.997  0.00  0.00    +0.000 HD
BRANCH  20  26
ATOM     24  C   UNL     1      30.009 -30.208 -28.560  0.00  0.00    -0.046 C 
ATOM     25  C   UNL     1      31.207 -30.957 -29.047  0.00  0.00    -0.079 C 
ATOM     26  C   UNL     1      31.411 -32.288 -29.014  0.00  0.00    +0.007 C 
ATOM     27  C   UNL     1      30.505 -33.354 -28.491  0.00  0.00    -0.035 C 
ENDBRANCH  20  26
ENDBRANCH   1  22
BRANCH  10  28
ATOM     28  C   UNL     1      32.870 -41.266 -36.526  0.00  0.00    +0.011 C 
ATOM     29  C   UNL     1      34.154 -41.756 -37.229  0.00  0.00    -0.049 C 
BRANCH  28  30
ATOM     30  N   UNL     1      31.734 -41.456 -37.494  0.00  0.00    -0.305 N 
ATOM     31  C   UNL     1      31.100 -40.176 -37.848  0.00  0.00    -0.013 C 
ATOM     32  C   UNL     1      30.690 -42.370 -37.023  0.00  0.00    -0.013 C 
ATOM     33  H   UNL     1      32.172 -41.878 -38.313  0.00  0.00    +0.000 HD
ENDBRANCH  28  30
ENDBRANCH  10  28
BRANCH  19  34
ATOM     34  O   UNL     1      34.216 -33.737 -32.476  0.00  0.00    -0.390 OA
ATOM     35  H   UNL     1      34.588 -33.872 -33.361  0.00  0.00    +0.000 HD
ENDBRANCH  19  34
BRANCH   2  36
ATOM     36  O   UNL     1      32.721 -36.405 -28.688  0.00  0.00    -0.459 OA
BRANCH  36  37
ATOM     37  C   UNL     1      33.033 -36.295 -27.367  0.00  0.00    +0.304 C 
ATOM     38  C   UNL     1      34.365 -36.929 -27.105  0.00  0.00    +0.033 C 
ATOM     39  O   UNL     1      32.332 -35.776 -26.512  0.00  0.00    -0.251 OA
ENDBRANCH  36  37
ENDBRANCH   2  36
TORSDOF 7
ENDMDL
MODEL 15
REMARK VINA RESULT:    -5.910      5.397      7.402
REMARK INTER + INTRA:          -9.708
REMARK INTER:                  -8.287
REMARK INTRA:                  -1.420
REMARK UNBOUND:                -1.552
REMARK  Name = cpd185.pdb
REMARK  15 active torsions:
REMARK  status: ('A' for Active; 'I' for Inactive)
REMARK    1  A    between atoms: C_1  and  C_2
REMARK    2  A    between atoms: C_3  and  C_4
REMARK    3  A    between atoms: C_3  and  C_5
REMARK    4  A    between atoms: N_7  and  C_8
REMARK    5  A    between atoms: C_9  and  O_10
REMARK    6  A    between atoms: O_10  and  C_11
REMARK    7  A    between atoms: C_11  and  C_12
REMARK    8  A    between atoms: C_21  and  C_22
REMARK    9  A    between atoms: C_22  and  C_23
REMARK   10  A    between atoms: C_22  and  N_24
REMARK   11  A    between atoms: N_24  and  C_25
REMARK   12  A    between atoms: N_24  and  C_26
REMARK   13  A    between atoms: C_27  and  C_28
REMARK   14  A    between atoms: C_32  and  C_33
REMARK   15  A    between atoms: C_35  and  O_36
REMARK                            x       y       z     vdW  Elec       q    Type
REMARK                         _______ _______ _______ _____ _____    ______ ____
ROOT
ATOM      1  C   UNL     1      33.213 -37.892 -23.526  0.00  0.00    +0.086 C 
ATOM      2  C   UNL     1      33.707 -38.734 -24.738  0.00  0.00    +0.127 C 
ATOM      3  C   UNL     1      33.839 -37.924 -26.054  0.00  0.00    +0.004 C 
ATOM      4  C   UNL     1      34.135 -38.834 -27.263  0.00  0.00    -0.046 C 
ATOM      5  C   UNL     1      34.014 -38.126 -28.613  0.00  0.00    -0.046 C 
ATOM      6  C   UNL     1      34.182 -36.611 -28.513  0.00  0.00    -0.016 C 
ATOM      7  C   UNL     1      34.133 -35.955 -29.859  0.00  0.00    -0.064 C 
ATOM      8  C   UNL     1      35.178 -35.508 -30.571  0.00  0.00    -0.084 C 
ATOM      9  C   UNL     1      34.742 -34.764 -31.796  0.00  0.00    -0.029 C 
ATOM     10  C   UNL     1      33.258 -34.450 -31.488  0.00  0.00    -0.013 C 
ATOM     11  C   UNL     1      32.823 -35.626 -30.526  0.00  0.00    -0.006 C 
ATOM     12  C   UNL     1      32.374 -36.809 -31.429  0.00  0.00    -0.056 C 
ATOM     13  C   UNL     1      31.692 -35.366 -29.510  0.00  0.00    -0.043 C 
ATOM     14  C   UNL     1      32.145 -35.000 -28.098  0.00  0.00    -0.048 C 
ATOM     15  C   UNL     1      33.223 -35.930 -27.482  0.00  0.00    -0.029 C 
ATOM     16  C   UNL     1      32.695 -36.901 -26.341  0.00  0.00    -0.020 C 
ATOM     17  C   UNL     1      31.384 -37.620 -26.742  0.00  0.00    -0.059 C 
ATOM     18  C   UNL     1      32.378 -36.053 -25.065  0.00  0.00    -0.019 C 
ATOM     19  C   UNL     1      33.254 -36.381 -23.855  0.00  0.00    +0.077 C 
ENDROOT
BRANCH   1  22
ATOM     20  C   UNL     1      31.595 -38.448 -21.718  0.00  0.00    +0.240 C 
ATOM     21  O   UNL     1      32.244 -37.921 -20.824  0.00  0.00    -0.271 OA
ATOM     22  N   UNL     1      31.901 -38.350 -23.049  0.00  0.00    -0.303 N 
ATOM     23  H   UNL     1      31.215 -38.596 -23.711  0.00  0.00    +0.000 HD
BRANCH  20  26
ATOM     24  C   UNL     1      28.369 -40.401 -22.506  0.00  0.00    -0.046 C 
ATOM     25  C   UNL     1      29.591 -39.542 -22.489  0.00  0.00    -0.079 C 
ATOM     26  C   UNL     1      30.386 -39.268 -21.437  0.00  0.00    +0.007 C 
ATOM     27  C   UNL     1      30.259 -39.746 -20.028  0.00  0.00    -0.035 C 
ENDBRANCH  20  26
ENDBRANCH   1  22
BRANCH  10  28
ATOM     28  C   UNL     1      33.049 -32.956 -31.037  0.00  0.00    +0.011 C 
ATOM     29  C   UNL     1      34.295 -32.077 -31.270  0.00  0.00    -0.049 C 
BRANCH  28  30
ATOM     30  N   UNL     1      31.893 -32.281 -31.725  0.00  0.00    -0.305 N 
ATOM     31  C   UNL     1      31.372 -31.155 -30.934  0.00  0.00    -0.013 C 
ATOM     32  C   UNL     1      30.777 -33.175 -32.041  0.00  0.00    -0.013 C 
ATOM     33  H   UNL     1      32.287 -31.949 -32.605  0.00  0.00    +0.000 HD
ENDBRANCH  28  30
ENDBRANCH  10  28
BRANCH  19  34
ATOM     34  O   UNL     1      32.857 -35.535 -22.777  0.00  0.00    -0.390 OA
ATOM     35  H   UNL     1      32.696 -34.639 -23.112  0.00  0.00    +0.000 HD
ENDBRANCH  19  34
BRANCH   2  36
ATOM     36  O   UNL     1      32.859 -39.889 -24.955  0.00  0.00    -0.459 OA
BRANCH  36  37
ATOM     37  C   UNL     1      33.345 -41.081 -24.510  0.00  0.00    +0.304 C 
ATOM     38  C   UNL     1      32.235 -41.890 -23.912  0.00  0.00    +0.033 C 
ATOM     39  O   UNL     1      34.510 -41.440 -24.567  0.00  0.00    -0.251 OA
ENDBRANCH  36  37
ENDBRANCH   2  36
TORSDOF 7
ENDMDL
MODEL 16
REMARK VINA RESULT:    -5.843     15.224     18.113
REMARK INTER + INTRA:          -9.616
REMARK INTER:                  -8.146
REMARK INTRA:                  -1.471
REMARK UNBOUND:                -1.552
REMARK  Name = cpd185.pdb
REMARK  15 active torsions:
REMARK  status: ('A' for Active; 'I' for Inactive)
REMARK    1  A    between atoms: C_1  and  C_2
REMARK    2  A    between atoms: C_3  and  C_4
REMARK    3  A    between atoms: C_3  and  C_5
REMARK    4  A    between atoms: N_7  and  C_8
REMARK    5  A    between atoms: C_9  and  O_10
REMARK    6  A    between atoms: O_10  and  C_11
REMARK    7  A    between atoms: C_11  and  C_12
REMARK    8  A    between atoms: C_21  and  C_22
REMARK    9  A    between atoms: C_22  and  C_23
REMARK   10  A    between atoms: C_22  and  N_24
REMARK   11  A    between atoms: N_24  and  C_25
REMARK   12  A    between atoms: N_24  and  C_26
REMARK   13  A    between atoms: C_27  and  C_28
REMARK   14  A    between atoms: C_32  and  C_33
REMARK   15  A    between atoms: C_35  and  O_36
REMARK                            x       y       z     vdW  Elec       q    Type
REMARK                         _______ _______ _______ _____ _____    ______ ____
ROOT
ATOM      1  C   UNL     1      42.515 -19.532 -32.988  0.00  0.00    +0.086 C 
ATOM      2  C   UNL     1      42.101 -18.032 -32.990  0.00  0.00    +0.127 C 
ATOM      3  C   UNL     1      40.579 -17.799 -32.801  0.00  0.00    +0.004 C 
ATOM      4  C   UNL     1      40.193 -16.321 -33.010  0.00  0.00    -0.046 C 
ATOM      5  C   UNL     1      38.685 -16.083 -33.095  0.00  0.00    -0.046 C 
ATOM      6  C   UNL     1      37.865 -17.184 -32.424  0.00  0.00    -0.016 C 
ATOM      7  C   UNL     1      36.397 -16.885 -32.459  0.00  0.00    -0.064 C 
ATOM      8  C   UNL     1      35.649 -16.421 -31.447  0.00  0.00    -0.084 C 
ATOM      9  C   UNL     1      34.193 -16.395 -31.795  0.00  0.00    -0.029 C 
ATOM     10  C   UNL     1      34.124 -17.330 -33.027  0.00  0.00    -0.013 C 
ATOM     11  C   UNL     1      35.560 -17.195 -33.673  0.00  0.00    -0.006 C 
ATOM     12  C   UNL     1      35.519 -15.962 -34.619  0.00  0.00    -0.056 C 
ATOM     13  C   UNL     1      36.116 -18.382 -34.486  0.00  0.00    -0.043 C 
ATOM     14  C   UNL     1      37.054 -19.320 -33.727  0.00  0.00    -0.048 C 
ATOM     15  C   UNL     1      38.193 -18.625 -32.935  0.00  0.00    -0.029 C 
ATOM     16  C   UNL     1      39.640 -18.778 -33.574  0.00  0.00    -0.020 C 
ATOM     17  C   UNL     1      39.645 -18.483 -35.094  0.00  0.00    -0.059 C 
ATOM     18  C   UNL     1      40.115 -20.258 -33.394  0.00  0.00    -0.019 C 
ATOM     19  C   UNL     1      41.346 -20.422 -32.501  0.00  0.00    +0.077 C 
ENDROOT
BRANCH   1  22
ATOM     20  C   UNL     1      44.398 -20.144 -34.495  0.00  0.00    +0.240 C 
ATOM     21  O   UNL     1      45.220 -20.274 -33.597  0.00  0.00    -0.271 OA
ATOM     22  N   UNL     1      43.060 -19.944 -34.289  0.00  0.00    -0.303 N 
ATOM     23  H   UNL     1      42.439 -20.083 -35.040  0.00  0.00    +0.000 HD
BRANCH  20  26
ATOM     24  C   UNL     1      43.881 -20.145 -38.313  0.00  0.00    -0.046 C 
ATOM     25  C   UNL     1      43.778 -20.186 -36.823  0.00  0.00    -0.079 C 
ATOM     26  C   UNL     1      44.786 -20.185 -35.931  0.00  0.00    +0.007 C 
ATOM     27  C   UNL     1      46.256 -20.141 -36.191  0.00  0.00    -0.035 C 
ENDBRANCH  20  26
ENDBRANCH   1  22
BRANCH  10  28
ATOM     28  C   UNL     1      33.564 -18.755 -32.661  0.00  0.00    +0.011 C 
ATOM     29  C   UNL     1      32.767 -18.767 -31.340  0.00  0.00    -0.049 C 
BRANCH  28  30
ATOM     30  N   UNL     1      32.674 -19.338 -33.723  0.00  0.00    -0.305 N 
ATOM     31  C   UNL     1      32.361 -18.355 -34.772  0.00  0.00    -0.013 C 
ATOM     32  C   UNL     1      31.413 -19.885 -33.217  0.00  0.00    -0.013 C 
ATOM     33  H   UNL     1      33.218 -20.111 -34.107  0.00  0.00    +0.000 HD
ENDBRANCH  28  30
ENDBRANCH  10  28
BRANCH  19  34
ATOM     34  O   UNL     1      41.659 -21.812 -32.427  0.00  0.00    -0.390 OA
ATOM     35  H   UNL     1      41.844 -22.053 -31.507  0.00  0.00    +0.000 HD
ENDBRANCH  19  34
BRANCH   2  36
ATOM     36  O   UNL     1      42.554 -17.365 -34.194  0.00  0.00    -0.459 OA
BRANCH  36  37
ATOM     37  C   UNL     1      43.648 -16.565 -34.061  0.00  0.00    +0.304 C 
ATOM     38  C   UNL     1      44.416 -16.536 -35.347  0.00  0.00    +0.033 C 
ATOM     39  O   UNL     1      43.974 -15.970 -33.045  0.00  0.00    -0.251 OA
ENDBRANCH  36  37
ENDBRANCH   2  36
TORSDOF 7
ENDMDL
MODEL 17
REMARK VINA RESULT:    -5.824     17.042     19.141
REMARK INTER + INTRA:          -9.589
REMARK INTER:                  -7.920
REMARK INTRA:                  -1.670
REMARK UNBOUND:                -1.552
REMARK  Name = cpd185.pdb
REMARK  15 active torsions:
REMARK  status: ('A' for Active; 'I' for Inactive)
REMARK    1  A    between atoms: C_1  and  C_2
REMARK    2  A    between atoms: C_3  and  C_4
REMARK    3  A    between atoms: C_3  and  C_5
REMARK    4  A    between atoms: N_7  and  C_8
REMARK    5  A    between atoms: C_9  and  O_10
REMARK    6  A    between atoms: O_10  and  C_11
REMARK    7  A    between atoms: C_11  and  C_12
REMARK    8  A    between atoms: C_21  and  C_22
REMARK    9  A    between atoms: C_22  and  C_23
REMARK   10  A    between atoms: C_22  and  N_24
REMARK   11  A    between atoms: N_24  and  C_25
REMARK   12  A    between atoms: N_24  and  C_26
REMARK   13  A    between atoms: C_27  and  C_28
REMARK   14  A    between atoms: C_32  and  C_33
REMARK   15  A    between atoms: C_35  and  O_36
REMARK                            x       y       z     vdW  Elec       q    Type
REMARK                         _______ _______ _______ _____ _____    ______ ____
ROOT
ATOM      1  C   UNL     1      43.262 -21.173 -38.968  0.00  0.00    +0.086 C 
ATOM      2  C   UNL     1      43.086 -20.716 -37.491  0.00  0.00    +0.127 C 
ATOM      3  C   UNL     1      41.632 -20.317 -37.126  0.00  0.00    +0.004 C 
ATOM      4  C   UNL     1      41.543 -19.685 -35.723  0.00  0.00    -0.046 C 
ATOM      5  C   UNL     1      40.191 -19.039 -35.421  0.00  0.00    -0.046 C 
ATOM      6  C   UNL     1      39.054 -19.601 -36.272  0.00  0.00    -0.016 C 
ATOM      7  C   UNL     1      37.732 -19.003 -35.901  0.00  0.00    -0.064 C 
ATOM      8  C   UNL     1      36.771 -19.575 -35.159  0.00  0.00    -0.084 C 
ATOM      9  C   UNL     1      35.522 -18.751 -35.129  0.00  0.00    -0.029 C 
ATOM     10  C   UNL     1      35.721 -17.794 -36.330  0.00  0.00    -0.013 C 
ATOM     11  C   UNL     1      37.292 -17.668 -36.445  0.00  0.00    -0.006 C 
ATOM     12  C   UNL     1      37.729 -16.530 -35.480  0.00  0.00    -0.056 C 
ATOM     13  C   UNL     1      37.907 -17.362 -37.826  0.00  0.00    -0.043 C 
ATOM     14  C   UNL     1      38.412 -18.574 -38.607  0.00  0.00    -0.048 C 
ATOM     15  C   UNL     1      39.323 -19.546 -37.812  0.00  0.00    -0.029 C 
ATOM     16  C   UNL     1      40.862 -19.491 -38.204  0.00  0.00    -0.020 C 
ATOM     17  C   UNL     1      41.394 -18.040 -38.289  0.00  0.00    -0.059 C 
ATOM     18  C   UNL     1      41.042 -20.127 -39.623  0.00  0.00    -0.019 C 
ATOM     19  C   UNL     1      41.887 -21.402 -39.639  0.00  0.00    +0.077 C 
ENDROOT
BRANCH   1  22
ATOM     20  C   UNL     1      45.044 -20.694 -40.639  0.00  0.00    +0.240 C 
ATOM     21  O   UNL     1      45.041 -21.817 -41.127  0.00  0.00    -0.271 OA
ATOM     22  N   UNL     1      44.132 -20.255 -39.717  0.00  0.00    -0.303 N 
ATOM     23  H   UNL     1      44.055 -19.288 -39.551  0.00  0.00    +0.000 HD
BRANCH  20  26
ATOM     24  C   UNL     1      46.893 -17.316 -40.518  0.00  0.00    -0.046 C 
ATOM     25  C   UNL     1      45.964 -18.480 -40.397  0.00  0.00    -0.079 C 
ATOM     26  C   UNL     1      46.067 -19.678 -41.004  0.00  0.00    +0.007 C 
ATOM     27  C   UNL     1      47.124 -20.154 -41.946  0.00  0.00    -0.035 C 
ENDBRANCH  20  26
ENDBRANCH   1  22
BRANCH  10  28
ATOM     28  C   UNL     1      34.880 -18.234 -37.586  0.00  0.00    +0.011 C 
ATOM     29  C   UNL     1      33.782 -19.263 -37.244  0.00  0.00    -0.049 C 
BRANCH  28  30
ATOM     30  N   UNL     1      34.210 -17.085 -38.289  0.00  0.00    -0.305 N 
ATOM     31  C   UNL     1      34.695 -16.934 -39.670  0.00  0.00    -0.013 C 
ATOM     32  C   UNL     1      34.356 -15.796 -37.608  0.00  0.00    -0.013 C 
ATOM     33  H   UNL     1      33.220 -17.332 -38.282  0.00  0.00    +0.000 HD
ENDBRANCH  28  30
ENDBRANCH  10  28
BRANCH  19  34
ATOM     34  O   UNL     1      41.962 -21.867 -40.986  0.00  0.00    -0.390 OA
ATOM     35  H   UNL     1      41.944 -21.110 -41.591  0.00  0.00    +0.000 HD
ENDBRANCH  19  34
BRANCH   2  36
ATOM     36  O   UNL     1      43.988 -19.630 -37.167  0.00  0.00    -0.459 OA
BRANCH  36  37
ATOM     37  C   UNL     1      45.195 -19.989 -36.645  0.00  0.00    +0.304 C 
ATOM     38  C   UNL     1      45.067 -20.199 -35.167  0.00  0.00    +0.033 C 
ATOM     39  O   UNL     1      46.234 -20.107 -37.274  0.00  0.00    -0.251 OA
ENDBRANCH  36  37
ENDBRANCH   2  36
TORSDOF 7
ENDMDL
MODEL 18
REMARK VINA RESULT:    -5.818     17.129     19.559
REMARK INTER + INTRA:          -9.582
REMARK INTER:                  -8.094
REMARK INTRA:                  -1.488
REMARK UNBOUND:                -1.552
REMARK  Name = cpd185.pdb
REMARK  15 active torsions:
REMARK  status: ('A' for Active; 'I' for Inactive)
REMARK    1  A    between atoms: C_1  and  C_2
REMARK    2  A    between atoms: C_3  and  C_4
REMARK    3  A    between atoms: C_3  and  C_5
REMARK    4  A    between atoms: N_7  and  C_8
REMARK    5  A    between atoms: C_9  and  O_10
REMARK    6  A    between atoms: O_10  and  C_11
REMARK    7  A    between atoms: C_11  and  C_12
REMARK    8  A    between atoms: C_21  and  C_22
REMARK    9  A    between atoms: C_22  and  C_23
REMARK   10  A    between atoms: C_22  and  N_24
REMARK   11  A    between atoms: N_24  and  C_25
REMARK   12  A    between atoms: N_24  and  C_26
REMARK   13  A    between atoms: C_27  and  C_28
REMARK   14  A    between atoms: C_32  and  C_33
REMARK   15  A    between atoms: C_35  and  O_36
REMARK                            x       y       z     vdW  Elec       q    Type
REMARK                         _______ _______ _______ _____ _____    ______ ____
ROOT
ATOM      1  C   UNL     1      44.721 -18.872 -38.230  0.00  0.00    +0.086 C 
ATOM      2  C   UNL     1      43.734 -17.882 -38.913  0.00  0.00    +0.127 C 
ATOM      3  C   UNL     1      42.414 -17.668 -38.128  0.00  0.00    +0.004 C 
ATOM      4  C   UNL     1      41.391 -16.844 -38.935  0.00  0.00    -0.046 C 
ATOM      5  C   UNL     1      39.990 -16.828 -38.323  0.00  0.00    -0.046 C 
ATOM      6  C   UNL     1      39.986 -17.124 -36.824  0.00  0.00    -0.016 C 
ATOM      7  C   UNL     1      38.610 -17.028 -36.241  0.00  0.00    -0.064 C 
ATOM      8  C   UNL     1      38.114 -16.012 -35.519  0.00  0.00    -0.084 C 
ATOM      9  C   UNL     1      36.760 -16.329 -34.964  0.00  0.00    -0.029 C 
ATOM     10  C   UNL     1      36.695 -17.870 -35.096  0.00  0.00    -0.013 C 
ATOM     11  C   UNL     1      37.637 -18.175 -36.328  0.00  0.00    -0.006 C 
ATOM     12  C   UNL     1      36.767 -18.039 -37.610  0.00  0.00    -0.056 C 
ATOM     13  C   UNL     1      38.343 -19.544 -36.394  0.00  0.00    -0.043 C 
ATOM     14  C   UNL     1      39.781 -19.571 -35.880  0.00  0.00    -0.048 C 
ATOM     15  C   UNL     1      40.707 -18.457 -36.436  0.00  0.00    -0.029 C 
ATOM     16  C   UNL     1      41.783 -18.949 -37.496  0.00  0.00    -0.020 C 
ATOM     17  C   UNL     1      41.164 -19.866 -38.579  0.00  0.00    -0.059 C 
ATOM     18  C   UNL     1      42.872 -19.793 -36.753  0.00  0.00    -0.019 C 
ATOM     19  C   UNL     1      44.273 -19.181 -36.781  0.00  0.00    +0.077 C 
ENDROOT
BRANCH   1  22
ATOM     20  C   UNL     1      46.152 -20.681 -39.166  0.00  0.00    +0.240 C 
ATOM     21  O   UNL     1      47.100 -20.468 -38.421  0.00  0.00    -0.271 OA
ATOM     22  N   UNL     1      44.929 -20.076 -39.045  0.00  0.00    -0.303 N 
ATOM     23  H   UNL     1      44.161 -20.464 -39.523  0.00  0.00    +0.000 HD
BRANCH  20  26
ATOM     24  C   UNL     1      47.698 -23.427 -41.383  0.00  0.00    -0.046 C 
ATOM     25  C   UNL     1      47.377 -22.352 -40.396  0.00  0.00    -0.079 C 
ATOM     26  C   UNL     1      46.242 -21.635 -40.304  0.00  0.00    +0.007 C 
ATOM     27  C   UNL     1      45.016 -21.724 -41.153  0.00  0.00    -0.035 C 
ENDBRANCH  20  26
ENDBRANCH   1  22
BRANCH  10  28
ATOM     28  C   UNL     1      36.948 -18.596 -33.723  0.00  0.00    +0.011 C 
ATOM     29  C   UNL     1      36.873 -17.639 -32.514  0.00  0.00    -0.049 C 
BRANCH  28  30
ATOM     30  N   UNL     1      35.989 -19.724 -33.457  0.00  0.00    -0.305 N 
ATOM     31  C   UNL     1      34.795 -19.264 -32.730  0.00  0.00    -0.013 C 
ATOM     32  C   UNL     1      36.572 -20.846 -32.718  0.00  0.00    -0.013 C 
ATOM     33  H   UNL     1      35.735 -20.059 -34.386  0.00  0.00    +0.000 HD
ENDBRANCH  28  30
ENDBRANCH  10  28
BRANCH  19  34
ATOM     34  O   UNL     1      45.152 -20.049 -36.068  0.00  0.00    -0.390 OA
ATOM     35  H   UNL     1      45.929 -19.551 -35.772  0.00  0.00    +0.000 HD
ENDBRANCH  19  34
BRANCH   2  36
ATOM     36  O   UNL     1      43.438 -18.290 -40.271  0.00  0.00    -0.459 OA
BRANCH  36  37
ATOM     37  C   UNL     1      44.216 -17.741 -41.245  0.00  0.00    +0.304 C 
ATOM     38  C   UNL     1      43.676 -16.398 -41.631  0.00  0.00    +0.033 C 
ATOM     39  O   UNL     1      45.197 -18.264 -41.750  0.00  0.00    -0.251 OA
ENDBRANCH  36  37
ENDBRANCH   2  36
TORSDOF 7
ENDMDL
MODEL 19
REMARK VINA RESULT:    -5.733      4.792      8.832
REMARK INTER + INTRA:          -9.465
REMARK INTER:                  -8.006
REMARK INTRA:                  -1.459
REMARK UNBOUND:                -1.552
REMARK  Name = cpd185.pdb
REMARK  15 active torsions:
REMARK  status: ('A' for Active; 'I' for Inactive)
REMARK    1  A    between atoms: C_1  and  C_2
REMARK    2  A    between atoms: C_3  and  C_4
REMARK    3  A    between atoms: C_3  and  C_5
REMARK    4  A    between atoms: N_7  and  C_8
REMARK    5  A    between atoms: C_9  and  O_10
REMARK    6  A    between atoms: O_10  and  C_11
REMARK    7  A    between atoms: C_11  and  C_12
REMARK    8  A    between atoms: C_21  and  C_22
REMARK    9  A    between atoms: C_22  and  C_23
REMARK   10  A    between atoms: C_22  and  N_24
REMARK   11  A    between atoms: N_24  and  C_25
REMARK   12  A    between atoms: N_24  and  C_26
REMARK   13  A    between atoms: C_27  and  C_28
REMARK   14  A    between atoms: C_32  and  C_33
REMARK   15  A    between atoms: C_35  and  O_36
REMARK                            x       y       z     vdW  Elec       q    Type
REMARK                         _______ _______ _______ _____ _____    ______ ____
ROOT
ATOM      1  C   UNL     1      36.180 -38.489 -28.837  0.00  0.00    +0.086 C 
ATOM      2  C   UNL     1      34.827 -37.846 -29.257  0.00  0.00    +0.127 C 
ATOM      3  C   UNL     1      33.750 -38.874 -29.690  0.00  0.00    +0.004 C 
ATOM      4  C   UNL     1      32.504 -38.187 -30.284  0.00  0.00    -0.046 C 
ATOM      5  C   UNL     1      31.532 -39.152 -30.964  0.00  0.00    -0.046 C 
ATOM      6  C   UNL     1      31.664 -40.589 -30.463  0.00  0.00    -0.016 C 
ATOM      7  C   UNL     1      30.650 -41.494 -31.092  0.00  0.00    -0.064 C 
ATOM      8  C   UNL     1      29.519 -41.946 -30.529  0.00  0.00    -0.084 C 
ATOM      9  C   UNL     1      28.831 -42.958 -31.392  0.00  0.00    -0.029 C 
ATOM     10  C   UNL     1      29.950 -43.378 -32.376  0.00  0.00    -0.013 C 
ATOM     11  C   UNL     1      30.871 -42.097 -32.455  0.00  0.00    -0.006 C 
ATOM     12  C   UNL     1      30.270 -41.171 -33.550  0.00  0.00    -0.056 C 
ATOM     13  C   UNL     1      32.367 -42.285 -32.781  0.00  0.00    -0.043 C 
ATOM     14  C   UNL     1      33.306 -42.316 -31.577  0.00  0.00    -0.048 C 
ATOM     15  C   UNL     1      33.115 -41.165 -30.554  0.00  0.00    -0.029 C 
ATOM     16  C   UNL     1      34.256 -40.059 -30.571  0.00  0.00    -0.020 C 
ATOM     17  C   UNL     1      34.597 -39.590 -32.007  0.00  0.00    -0.059 C 
ATOM     18  C   UNL     1      35.564 -40.676 -29.971  0.00  0.00    -0.019 C 
ATOM     19  C   UNL     1      36.031 -40.020 -28.671  0.00  0.00    +0.077 C 
ENDROOT
BRANCH   1  22
ATOM     20  C   UNL     1      38.529 -37.810 -29.304  0.00  0.00    +0.240 C 
ATOM     21  O   UNL     1      38.950 -38.098 -28.191  0.00  0.00    -0.271 OA
ATOM     22  N   UNL     1      37.267 -38.103 -29.747  0.00  0.00    -0.303 N 
ATOM     23  H   UNL     1      37.081 -38.054 -30.713  0.00  0.00    +0.000 HD
BRANCH  20  26
ATOM     24  C   UNL     1      41.685 -36.987 -31.356  0.00  0.00    -0.046 C 
ATOM     25  C   UNL     1      40.652 -37.478 -30.393  0.00  0.00    -0.079 C 
ATOM     26  C   UNL     1      39.366 -37.093 -30.303  0.00  0.00    +0.007 C 
ATOM     27  C   UNL     1      38.637 -36.086 -31.132  0.00  0.00    -0.035 C 
ENDBRANCH  20  26
ENDBRANCH   1  22
BRANCH  10  28
ATOM     28  C   UNL     1      30.580 -44.770 -32.000  0.00  0.00    +0.011 C 
ATOM     29  C   UNL     1      29.731 -45.560 -30.983  0.00  0.00    -0.049 C 
BRANCH  28  30
ATOM     30  N   UNL     1      30.801 -45.667 -33.187  0.00  0.00    -0.305 N 
ATOM     31  C   UNL     1      32.231 -45.935 -33.408  0.00  0.00    -0.013 C 
ATOM     32  C   UNL     1      30.232 -45.160 -34.438  0.00  0.00    -0.013 C 
ATOM     33  H   UNL     1      30.309 -46.527 -32.945  0.00  0.00    +0.000 HD
ENDBRANCH  28  30
ENDBRANCH  10  28
BRANCH  19  34
ATOM     34  O   UNL     1      37.220 -40.682 -28.243  0.00  0.00    -0.390 OA
ATOM     35  H   UNL     1      37.336 -40.553 -27.289  0.00  0.00    +0.000 HD
ENDBRANCH  19  34
BRANCH   2  36
ATOM     36  O   UNL     1      35.016 -36.862 -30.303  0.00  0.00    -0.459 OA
BRANCH  36  37
ATOM     37  C   UNL     1      35.010 -35.558 -29.908  0.00  0.00    +0.304 C 
ATOM     38  C   UNL     1      34.273 -35.423 -28.611  0.00  0.00    +0.033 C 
ATOM     39  O   UNL     1      35.510 -34.628 -30.521  0.00  0.00    -0.251 OA
ENDBRANCH  36  37
ENDBRANCH   2  36
TORSDOF 7
ENDMDL
MODEL 20
REMARK VINA RESULT:    -5.709      5.823      7.408
REMARK INTER + INTRA:          -9.431
REMARK INTER:                  -7.975
REMARK INTRA:                  -1.457
REMARK UNBOUND:                -1.552
REMARK  Name = cpd185.pdb
REMARK  15 active torsions:
REMARK  status: ('A' for Active; 'I' for Inactive)
REMARK    1  A    between atoms: C_1  and  C_2
REMARK    2  A    between atoms: C_3  and  C_4
REMARK    3  A    between atoms: C_3  and  C_5
REMARK    4  A    between atoms: N_7  and  C_8
REMARK    5  A    between atoms: C_9  and  O_10
REMARK    6  A    between atoms: O_10  and  C_11
REMARK    7  A    between atoms: C_11  and  C_12
REMARK    8  A    between atoms: C_21  and  C_22
REMARK    9  A    between atoms: C_22  and  C_23
REMARK   10  A    between atoms: C_22  and  N_24
REMARK   11  A    between atoms: N_24  and  C_25
REMARK   12  A    between atoms: N_24  and  C_26
REMARK   13  A    between atoms: C_27  and  C_28
REMARK   14  A    between atoms: C_32  and  C_33
REMARK   15  A    between atoms: C_35  and  O_36
REMARK                            x       y       z     vdW  Elec       q    Type
REMARK                         _______ _______ _______ _____ _____    ______ ____
ROOT
ATOM      1  C   UNL     1      33.925 -37.960 -28.909  0.00  0.00    +0.086 C 
ATOM      2  C   UNL     1      33.580 -39.349 -28.297  0.00  0.00    +0.127 C 
ATOM      3  C   UNL     1      32.639 -39.277 -27.066  0.00  0.00    +0.004 C 
ATOM      4  C   UNL     1      32.488 -40.648 -26.376  0.00  0.00    -0.046 C 
ATOM      5  C   UNL     1      31.791 -40.582 -25.017  0.00  0.00    -0.046 C 
ATOM      6  C   UNL     1      30.910 -39.344 -24.854  0.00  0.00    -0.016 C 
ATOM      7  C   UNL     1      30.184 -39.346 -23.544  0.00  0.00    -0.064 C 
ATOM      8  C   UNL     1      28.895 -39.659 -23.341  0.00  0.00    -0.084 C 
ATOM      9  C   UNL     1      28.471 -39.394 -21.930  0.00  0.00    -0.029 C 
ATOM     10  C   UNL     1      29.589 -38.457 -21.412  0.00  0.00    -0.013 C 
ATOM     11  C   UNL     1      30.846 -38.870 -22.277  0.00  0.00    -0.006 C 
ATOM     12  C   UNL     1      31.525 -40.065 -21.550  0.00  0.00    -0.056 C 
ATOM     13  C   UNL     1      31.936 -37.812 -22.543  0.00  0.00    -0.043 C 
ATOM     14  C   UNL     1      31.836 -37.083 -23.881  0.00  0.00    -0.048 C 
ATOM     15  C   UNL     1      31.651 -37.994 -25.123  0.00  0.00    -0.029 C 
ATOM     16  C   UNL     1      32.934 -38.127 -26.051  0.00  0.00    -0.020 C 
ATOM     17  C   UNL     1      34.220 -38.408 -25.237  0.00  0.00    -0.059 C 
ATOM     18  C   UNL     1      33.155 -36.771 -26.801  0.00  0.00    -0.019 C 
ATOM     19  C   UNL     1      33.010 -36.859 -28.321  0.00  0.00    +0.077 C 
ENDROOT
BRANCH   1  22
ATOM     20  C   UNL     1      36.084 -37.109 -29.807  0.00  0.00    +0.240 C 
ATOM     21  O   UNL     1      35.590 -36.572 -30.791  0.00  0.00    -0.271 OA
ATOM     22  N   UNL     1      35.358 -37.657 -28.785  0.00  0.00    -0.303 N 
ATOM     23  H   UNL     1      35.812 -37.855 -27.934  0.00  0.00    +0.000 HD
BRANCH  20  26
ATOM     24  C   UNL     1      39.812 -36.640 -30.662  0.00  0.00    -0.046 C 
ATOM     25  C   UNL     1      38.321 -36.726 -30.618  0.00  0.00    -0.079 C 
ATOM     26  C   UNL     1      37.557 -37.225 -29.628  0.00  0.00    +0.007 C 
ATOM     27  C   UNL     1      37.991 -37.814 -28.326  0.00  0.00    -0.035 C 
ENDBRANCH  20  26
ENDBRANCH   1  22
BRANCH  10  28
ATOM     28  C   UNL     1      29.131 -36.952 -21.371  0.00  0.00    +0.011 C 
ATOM     29  C   UNL     1      27.601 -36.786 -21.476  0.00  0.00    -0.049 C 
BRANCH  28  30
ATOM     30  N   UNL     1      29.573 -36.226 -20.130  0.00  0.00    -0.305 N 
ATOM     31  C   UNL     1      30.090 -37.154 -19.111  0.00  0.00    -0.013 C 
ATOM     32  C   UNL     1      28.532 -35.401 -19.513  0.00  0.00    -0.013 C 
ATOM     33  H   UNL     1      30.313 -35.604 -20.456  0.00  0.00    +0.000 HD
ENDBRANCH  28  30
ENDBRANCH  10  28
BRANCH  19  34
ATOM     34  O   UNL     1      33.234 -35.559 -28.864  0.00  0.00    -0.390 OA
ATOM     35  H   UNL     1      32.691 -34.912 -28.388  0.00  0.00    +0.000 HD
ENDBRANCH  19  34
BRANCH   2  36
ATOM     36  O   UNL     1      34.780 -40.085 -27.957  0.00  0.00    -0.459 OA
BRANCH  36  37
ATOM     37  C   UNL     1      35.050 -41.179 -28.723  0.00  0.00    +0.304 C 
ATOM     38  C   UNL     1      36.275 -40.929 -29.549  0.00  0.00    +0.033 C 
ATOM     39  O   UNL     1      34.390 -42.205 -28.755  0.00  0.00    -0.251 OA
ENDBRANCH  36  37
ENDBRANCH   2  36
TORSDOF 7
ENDMDL
