REMARK  Name = cpd185.pdb
REMARK  15 active torsions:
REMARK  status: ('A' for Active; 'I' for Inactive)
REMARK    1  A    between atoms: C_1  and  C_2
REMARK    2  A    between atoms: C_3  and  C_4
REMARK    3  A    between atoms: C_3  and  C_5
REMARK    4  A    between atoms: N_7  and  C_8
REMARK    5  A    between atoms: C_9  and  O_10
REMARK    6  A    between atoms: O_10  and  C_11
REMARK    7  A    between atoms: C_11  and  C_12
REMARK    8  A    between atoms: C_21  and  C_22
REMARK    9  A    between atoms: C_22  and  C_23
REMARK   10  A    between atoms: C_22  and  N_24
REMARK   11  A    between atoms: N_24  and  C_25
REMARK   12  A    between atoms: N_24  and  C_26
REMARK   13  A    between atoms: C_27  and  C_28
REMARK   14  A    between atoms: C_32  and  C_33
REMARK   15  A    between atoms: C_35  and  O_36
REMARK                            x       y       z     vdW  Elec       q    Type
REMARK                         _______ _______ _______ _____ _____    ______ ____
ROOT
ATOM      1  C   UNL     1      -1.185   1.312  -1.574  0.00  0.00    +0.086 C 
ATOM      2  C   UNL     1       0.083   2.133  -1.201  0.00  0.00    +0.127 C 
ATOM      3  C   UNL     1       1.368   1.276  -1.060  0.00  0.00    +0.004 C 
ATOM      4  C   UNL     1       2.547   2.094  -0.497  0.00  0.00    -0.046 C 
ATOM      5  C   UNL     1       3.752   1.244  -0.093  0.00  0.00    -0.046 C 
ATOM      6  C   UNL     1       3.800  -0.106  -0.807  0.00  0.00    -0.016 C 
ATOM      7  C   UNL     1       5.029  -0.883  -0.447  0.00  0.00    -0.064 C 
ATOM      8  C   UNL     1       6.134  -1.028  -1.194  0.00  0.00    -0.084 C 
ATOM      9  C   UNL     1       7.094  -2.004  -0.588  0.00  0.00    -0.029 C 
ATOM     10  C   UNL     1       6.206  -2.764   0.427  0.00  0.00    -0.013 C 
ATOM     11  C   UNL     1       5.099  -1.705   0.814  0.00  0.00    -0.006 C 
ATOM     12  C   UNL     1       5.676  -0.848   1.976  0.00  0.00    -0.056 C 
ATOM     13  C   UNL     1       3.715  -2.217   1.262  0.00  0.00    -0.043 C 
ATOM     14  C   UNL     1       2.641  -2.253   0.176  0.00  0.00    -0.048 C 
ATOM     15  C   UNL     1       2.494  -0.953  -0.658  0.00  0.00    -0.029 C 
ATOM     16  C   UNL     1       1.194  -0.097  -0.337  0.00  0.00    -0.020 C 
ATOM     17  C   UNL     1       0.975   0.090   1.184  0.00  0.00    -0.059 C 
ATOM     18  C   UNL     1      -0.058  -0.858  -0.888  0.00  0.00    -0.019 C 
ATOM     19  C   UNL     1      -0.801  -0.124  -2.005  0.00  0.00    +0.077 C 
ENDROOT
BRANCH   1  22
ATOM     20  C   UNL     1      -3.523   1.153  -0.736  0.00  0.00    +0.240 C 
ATOM     21  O   UNL     1      -3.975   0.663  -1.763  0.00  0.00    -0.271 OA
ATOM     22  N   UNL     1      -2.189   1.351  -0.502  0.00  0.00    -0.303 N 
ATOM     23  H   UNL     1      -1.891   1.526   0.420  0.00  0.00    +0.000 HD
BRANCH  20  26
ATOM     24  C   UNL     1      -5.271   3.637   1.635  0.00  0.00    -0.046 C 
ATOM     25  C   UNL     1      -4.426   2.918   0.634  0.00  0.00    -0.079 C 
ATOM     26  C   UNL     1      -4.402   1.596   0.380  0.00  0.00    +0.007 C 
ATOM     27  C   UNL     1      -5.205   0.512   1.021  0.00  0.00    -0.035 C 
ENDBRANCH  20  26
ENDBRANCH   1  22
BRANCH  10  28
ATOM     28  C   UNL     1       5.777  -4.182  -0.104  0.00  0.00    +0.011 C 
ATOM     29  C   UNL     1       5.159  -4.134  -1.517  0.00  0.00    -0.049 C 
BRANCH  28  30
ATOM     30  N   UNL     1       6.909  -5.172  -0.147  0.00  0.00    -0.305 N 
ATOM     31  C   UNL     1       6.428  -6.538  -0.408  0.00  0.00    -0.013 C 
ATOM     32  C   UNL     1       7.730  -5.199   1.066  0.00  0.00    -0.013 C 
ATOM     33  H   UNL     1       7.496  -4.846  -0.915  0.00  0.00    +0.000 HD
ENDBRANCH  28  30
ENDBRANCH  10  28
BRANCH  19  34
ATOM     34  O   UNL     1      -1.907  -0.931  -2.407  0.00  0.00    -0.390 OA
ATOM     35  H   UNL     1      -2.496  -1.072  -1.650  0.00  0.00    +0.000 HD
ENDBRANCH  19  34
BRANCH   2  36
ATOM     36  O   UNL     1      -0.128   2.904   0.007  0.00  0.00    -0.459 OA
BRANCH  36  37
ATOM     37  C   UNL     1      -0.690   4.134  -0.157  0.00  0.00    +0.304 C 
ATOM     38  C   UNL     1      -0.775   4.834   1.165  0.00  0.00    +0.033 C 
ATOM     39  O   UNL     1      -1.086   4.599  -1.214  0.00  0.00    -0.251 OA
ENDBRANCH  36  37
ENDBRANCH   2  36
TORSDOF 7
