MODEL 1
REMARK VINA RESULT:    -8.441      0.000      0.000
REMARK INTER + INTRA:         -12.038
REMARK INTER:                 -11.401
REMARK INTRA:                  -0.637
REMARK UNBOUND:                -0.637
REMARK  Name = cpd63.pdb
REMARK  8 active torsions:
REMARK  status: ('A' for Active; 'I' for Inactive)
REMARK    1  A    between atoms: C_1  and  O_2
REMARK    2  A    between atoms: O_2  and  C_3
REMARK    3  A    between atoms: C_8  and  O_9
REMARK    4  A    between atoms: O_9  and  C_10
REMARK    5  A    between atoms: C_13  and  C_14
REMARK    6  A    between atoms: C_14  and  C_15
REMARK    7  A    between atoms: N_18  and  C_19
REMARK    8  A    between atoms: C_19  and  C_20
REMARK                            x       y       z     vdW  Elec       q    Type
REMARK                         _______ _______ _______ _____ _____    ______ ____
ROOT
ATOM      1  C   UNL     1      38.240 -35.761 -30.742  0.00  0.00    -0.040 C 
ENDROOT
BRANCH   1  10
ATOM      2  C   UNL     1      43.843 -37.986 -30.496  0.00  0.00    +0.162 A 
ATOM      3  C   UNL     1      42.483 -38.358 -30.462  0.00  0.00    -0.012 A 
ATOM      4  C   UNL     1      41.511 -37.428 -30.780  0.00  0.00    -0.033 A 
ATOM      5  C   UNL     1      41.891 -36.138 -31.100  0.00  0.00    +0.025 A 
ATOM      6  C   UNL     1      43.211 -35.722 -31.132  0.00  0.00    -0.006 A 
ATOM      7  C   UNL     1      44.212 -36.658 -30.832  0.00  0.00    +0.162 A 
ATOM      8  C   UNL     1      40.692 -35.366 -31.392  0.00  0.00    +0.167 C 
ATOM      9  O   UNL     1      40.714 -34.168 -31.604  0.00  0.00    -0.292 OA
ATOM     10  C   UNL     1      39.491 -36.304 -31.444  0.00  0.00    +0.026 C 
ATOM     11  C   UNL     1      40.027 -37.595 -30.766  0.00  0.00    -0.017 C 
BRANCH   2  13
ATOM     12  C   UNL     1      44.261 -39.906 -29.110  0.00  0.00    +0.079 C 
ATOM     13  O   UNL     1      44.660 -39.036 -30.158  0.00  0.00    -0.491 OA
ENDBRANCH   2  13
BRANCH   7  14
ATOM     14  O   UNL     1      45.543 -36.333 -30.823  0.00  0.00    -0.491 OA
ATOM     15  C   UNL     1      45.973 -35.293 -29.951  0.00  0.00    +0.079 C 
ENDBRANCH   7  14
ENDBRANCH   1  10
BRANCH   1  16
ATOM     16  C   UNL     1      37.207 -36.845 -30.350  0.00  0.00    -0.038 C 
ATOM     17  C   UNL     1      35.793 -36.538 -30.847  0.00  0.00    -0.037 C 
ATOM     18  C   UNL     1      34.757 -37.501 -30.265  0.00  0.00    -0.001 C 
ATOM     19  N   UNL     1      34.820 -37.681 -28.807  0.00  0.00    -0.298 N 
ATOM     20  C   UNL     1      35.848 -36.857 -28.167  0.00  0.00    -0.001 C 
ATOM     21  C   UNL     1      37.215 -37.073 -28.824  0.00  0.00    -0.037 C 
ATOM     22  H   UNL     1      35.103 -38.646 -28.642  0.00  0.00    +0.000 HD
BRANCH  19  23
ATOM     23  C   UNL     1      33.495 -37.487 -28.194  0.00  0.00    +0.024 C 
BRANCH  23  24
ATOM     24  C   UNL     1      33.436 -37.887 -26.736  0.00  0.00    -0.033 A 
ATOM     25  C   UNL     1      33.255 -36.911 -25.742  0.00  0.00    -0.057 A 
ATOM     26  C   UNL     1      33.215 -37.271 -24.394  0.00  0.00    -0.061 A 
ATOM     27  C   UNL     1      33.352 -38.607 -24.026  0.00  0.00    -0.062 A 
ATOM     28  C   UNL     1      33.526 -39.586 -25.003  0.00  0.00    -0.061 A 
ATOM     29  C   UNL     1      33.569 -39.228 -26.352  0.00  0.00    -0.057 A 
ENDBRANCH  23  24
ENDBRANCH  19  23
ENDBRANCH   1  16
TORSDOF 6
ENDMDL
MODEL 2
REMARK VINA RESULT:    -8.085      2.334      3.820
REMARK INTER + INTRA:         -11.558
REMARK INTER:                 -11.318
REMARK INTRA:                  -0.240
REMARK UNBOUND:                -0.637
REMARK  Name = cpd63.pdb
REMARK  8 active torsions:
REMARK  status: ('A' for Active; 'I' for Inactive)
REMARK    1  A    between atoms: C_1  and  O_2
REMARK    2  A    between atoms: O_2  and  C_3
REMARK    3  A    between atoms: C_8  and  O_9
REMARK    4  A    between atoms: O_9  and  C_10
REMARK    5  A    between atoms: C_13  and  C_14
REMARK    6  A    between atoms: C_14  and  C_15
REMARK    7  A    between atoms: N_18  and  C_19
REMARK    8  A    between atoms: C_19  and  C_20
REMARK                            x       y       z     vdW  Elec       q    Type
REMARK                         _______ _______ _______ _____ _____    ______ ____
ROOT
ATOM      1  C   UNL     1      41.518 -36.170 -30.724  0.00  0.00    -0.040 C 
ENDROOT
BRANCH   1  10
ATOM      2  C   UNL     1      45.102 -40.881 -29.550  0.00  0.00    +0.162 A 
ATOM      3  C   UNL     1      43.779 -40.533 -29.893  0.00  0.00    -0.012 A 
ATOM      4  C   UNL     1      43.490 -39.235 -30.272  0.00  0.00    -0.033 A 
ATOM      5  C   UNL     1      44.501 -38.294 -30.283  0.00  0.00    +0.025 A 
ATOM      6  C   UNL     1      45.811 -38.584 -29.940  0.00  0.00    -0.006 A 
ATOM      7  C   UNL     1      46.127 -39.900 -29.572  0.00  0.00    +0.162 A 
ATOM      8  C   UNL     1      43.939 -37.022 -30.715  0.00  0.00    +0.167 C 
ATOM      9  O   UNL     1      44.579 -35.986 -30.720  0.00  0.00    -0.292 OA
ATOM     10  C   UNL     1      42.510 -37.242 -31.196  0.00  0.00    +0.026 C 
ATOM     11  C   UNL     1      42.164 -38.646 -30.631  0.00  0.00    -0.017 C 
BRANCH   2  13
ATOM     12  C   UNL     1      45.055 -42.574 -27.845  0.00  0.00    +0.079 C 
ATOM     13  O   UNL     1      45.200 -42.206 -29.208  0.00  0.00    -0.491 OA
ENDBRANCH   2  13
BRANCH   7  14
ATOM     14  O   UNL     1      47.392 -40.276 -29.202  0.00  0.00    -0.491 OA
ATOM     15  C   UNL     1      48.419 -39.291 -29.231  0.00  0.00    +0.079 C 
ENDBRANCH   7  14
ENDBRANCH   1  10
BRANCH   1  16
ATOM     16  C   UNL     1      40.113 -36.276 -31.364  0.00  0.00    -0.038 C 
ATOM     17  C   UNL     1      39.519 -34.917 -31.741  0.00  0.00    -0.037 C 
ATOM     18  C   UNL     1      38.053 -35.028 -32.164  0.00  0.00    -0.001 C 
ATOM     19  N   UNL     1      37.192 -35.788 -31.246  0.00  0.00    -0.298 N 
ATOM     20  C   UNL     1      37.899 -36.268 -30.056  0.00  0.00    -0.001 C 
ATOM     21  C   UNL     1      39.154 -37.057 -30.440  0.00  0.00    -0.037 C 
ATOM     22  H   UNL     1      36.901 -36.628 -31.745  0.00  0.00    +0.000 HD
BRANCH  19  23
ATOM     23  C   UNL     1      35.982 -35.023 -30.901  0.00  0.00    +0.024 C 
BRANCH  23  24
ATOM     24  C   UNL     1      34.973 -35.813 -30.097  0.00  0.00    -0.033 A 
ATOM     25  C   UNL     1      34.086 -35.154 -29.232  0.00  0.00    -0.057 A 
ATOM     26  C   UNL     1      33.163 -35.877 -28.476  0.00  0.00    -0.061 A 
ATOM     27  C   UNL     1      33.114 -37.266 -28.578  0.00  0.00    -0.062 A 
ATOM     28  C   UNL     1      33.986 -37.932 -29.438  0.00  0.00    -0.061 A 
ATOM     29  C   UNL     1      34.912 -37.210 -30.193  0.00  0.00    -0.057 A 
ENDBRANCH  23  24
ENDBRANCH  19  23
ENDBRANCH   1  16
TORSDOF 6
ENDMDL
MODEL 3
REMARK VINA RESULT:    -7.999     15.416     19.675
REMARK INTER + INTRA:         -11.442
REMARK INTER:                 -10.486
REMARK INTRA:                  -0.956
REMARK UNBOUND:                -0.637
REMARK  Name = cpd63.pdb
REMARK  8 active torsions:
REMARK  status: ('A' for Active; 'I' for Inactive)
REMARK    1  A    between atoms: C_1  and  O_2
REMARK    2  A    between atoms: O_2  and  C_3
REMARK    3  A    between atoms: C_8  and  O_9
REMARK    4  A    between atoms: O_9  and  C_10
REMARK    5  A    between atoms: C_13  and  C_14
REMARK    6  A    between atoms: C_14  and  C_15
REMARK    7  A    between atoms: N_18  and  C_19
REMARK    8  A    between atoms: C_19  and  C_20
REMARK                            x       y       z     vdW  Elec       q    Type
REMARK                         _______ _______ _______ _____ _____    ______ ____
ROOT
ATOM      1  C   UNL     1      41.158 -19.284 -36.650  0.00  0.00    -0.040 C 
ENDROOT
BRANCH   1  10
ATOM      2  C   UNL     1      40.280 -23.625 -32.551  0.00  0.00    +0.162 A 
ATOM      3  C   UNL     1      41.124 -22.545 -32.881  0.00  0.00    -0.012 A 
ATOM      4  C   UNL     1      40.757 -21.673 -33.890  0.00  0.00    -0.033 A 
ATOM      5  C   UNL     1      39.578 -21.894 -34.576  0.00  0.00    +0.025 A 
ATOM      6  C   UNL     1      38.725 -22.948 -34.299  0.00  0.00    -0.006 A 
ATOM      7  C   UNL     1      39.071 -23.831 -33.265  0.00  0.00    +0.162 A 
ATOM      8  C   UNL     1      39.427 -20.845 -35.575  0.00  0.00    +0.167 C 
ATOM      9  O   UNL     1      38.529 -20.844 -36.398  0.00  0.00    -0.292 OA
ATOM     10  C   UNL     1      40.500 -19.785 -35.357  0.00  0.00    +0.026 C 
ATOM     11  C   UNL     1      41.514 -20.502 -34.425  0.00  0.00    -0.017 C 
BRANCH   2  13
ATOM     12  C   UNL     1      41.691 -23.759 -30.610  0.00  0.00    +0.079 C 
ATOM     13  O   UNL     1      40.801 -24.376 -31.527  0.00  0.00    -0.491 OA
ENDBRANCH   2  13
BRANCH   7  14
ATOM     14  O   UNL     1      38.296 -24.911 -32.931  0.00  0.00    -0.491 OA
ATOM     15  C   UNL     1      37.212 -25.249 -33.789  0.00  0.00    +0.079 C 
ENDBRANCH   7  14
ENDBRANCH   1  10
BRANCH   1  16
ATOM     16  C   UNL     1      42.482 -19.999 -37.010  0.00  0.00    -0.038 C 
ATOM     17  C   UNL     1      43.662 -19.038 -37.167  0.00  0.00    -0.037 C 
ATOM     18  C   UNL     1      44.900 -19.735 -37.734  0.00  0.00    -0.001 C 
ATOM     19  N   UNL     1      44.665 -20.547 -38.938  0.00  0.00    -0.298 N 
ATOM     20  C   UNL     1      43.277 -20.501 -39.403  0.00  0.00    -0.001 C 
ATOM     21  C   UNL     1      42.305 -20.863 -38.276  0.00  0.00    -0.037 C 
ATOM     22  H   UNL     1      44.830 -21.518 -38.673  0.00  0.00    +0.000 HD
BRANCH  19  23
ATOM     23  C   UNL     1      45.619 -20.200 -40.004  0.00  0.00    +0.024 C 
BRANCH  23  24
ATOM     24  C   UNL     1      46.254 -21.403 -40.666  0.00  0.00    -0.033 A 
ATOM     25  C   UNL     1      47.312 -22.079 -40.039  0.00  0.00    -0.057 A 
ATOM     26  C   UNL     1      47.912 -23.180 -40.651  0.00  0.00    -0.061 A 
ATOM     27  C   UNL     1      47.459 -23.619 -41.894  0.00  0.00    -0.062 A 
ATOM     28  C   UNL     1      46.405 -22.960 -42.524  0.00  0.00    -0.061 A 
ATOM     29  C   UNL     1      45.805 -21.856 -41.915  0.00  0.00    -0.057 A 
ENDBRANCH  23  24
ENDBRANCH  19  23
ENDBRANCH   1  16
TORSDOF 6
ENDMDL
MODEL 4
REMARK VINA RESULT:    -7.603      6.897     11.841
REMARK INTER + INTRA:         -10.907
REMARK INTER:                 -10.175
REMARK INTRA:                  -0.733
REMARK UNBOUND:                -0.637
REMARK  Name = cpd63.pdb
REMARK  8 active torsions:
REMARK  status: ('A' for Active; 'I' for Inactive)
REMARK    1  A    between atoms: C_1  and  O_2
REMARK    2  A    between atoms: O_2  and  C_3
REMARK    3  A    between atoms: C_8  and  O_9
REMARK    4  A    between atoms: O_9  and  C_10
REMARK    5  A    between atoms: C_13  and  C_14
REMARK    6  A    between atoms: C_14  and  C_15
REMARK    7  A    between atoms: N_18  and  C_19
REMARK    8  A    between atoms: C_19  and  C_20
REMARK                            x       y       z     vdW  Elec       q    Type
REMARK                         _______ _______ _______ _____ _____    ______ ____
ROOT
ATOM      1  C   UNL     1      32.971 -33.561 -29.674  0.00  0.00    -0.040 C 
ENDROOT
BRANCH   1  10
ATOM      2  C   UNL     1      28.757 -29.804 -31.805  0.00  0.00    +0.162 A 
ATOM      3  C   UNL     1      29.913 -29.856 -30.999  0.00  0.00    -0.012 A 
ATOM      4  C   UNL     1      30.685 -31.002 -30.984  0.00  0.00    -0.033 A 
ATOM      5  C   UNL     1      30.293 -32.090 -31.741  0.00  0.00    +0.025 A 
ATOM      6  C   UNL     1      29.159 -32.092 -32.535  0.00  0.00    -0.006 A 
ATOM      7  C   UNL     1      28.375 -30.930 -32.579  0.00  0.00    +0.162 A 
ATOM      8  C   UNL     1      31.267 -33.156 -31.551  0.00  0.00    +0.167 C 
ATOM      9  O   UNL     1      31.122 -34.271 -32.016  0.00  0.00    -0.292 OA
ATOM     10  C   UNL     1      32.457 -32.614 -30.767  0.00  0.00    +0.026 C 
ATOM     11  C   UNL     1      31.912 -31.285 -30.179  0.00  0.00    -0.017 C 
BRANCH   2  13
ATOM     12  C   UNL     1      28.540 -27.687 -30.686  0.00  0.00    +0.079 C 
ATOM     13  O   UNL     1      28.123 -28.591 -31.698  0.00  0.00    -0.491 OA
ENDBRANCH   2  13
BRANCH   7  14
ATOM     14  O   UNL     1      27.227 -30.845 -33.323  0.00  0.00    -0.491 OA
ATOM     15  C   UNL     1      27.340 -30.452 -34.687  0.00  0.00    +0.079 C 
ENDBRANCH   7  14
ENDBRANCH   1  10
BRANCH   1  16
ATOM     16  C   UNL     1      34.499 -33.798 -29.702  0.00  0.00    -0.038 C 
ATOM     17  C   UNL     1      35.124 -33.538 -31.074  0.00  0.00    -0.037 C 
ATOM     18  C   UNL     1      36.585 -33.988 -31.134  0.00  0.00    -0.001 C 
ATOM     19  N   UNL     1      36.843 -35.349 -30.641  0.00  0.00    -0.298 N 
ATOM     20  C   UNL     1      35.627 -36.049 -30.219  0.00  0.00    -0.001 C 
ATOM     21  C   UNL     1      34.836 -35.219 -29.205  0.00  0.00    -0.037 C 
ATOM     22  H   UNL     1      37.408 -35.253 -29.798  0.00  0.00    +0.000 HD
BRANCH  19  23
ATOM     23  C   UNL     1      37.619 -36.127 -31.621  0.00  0.00    +0.024 C 
BRANCH  23  24
ATOM     24  C   UNL     1      39.107 -36.134 -31.348  0.00  0.00    -0.033 A 
ATOM     25  C   UNL     1      39.641 -36.980 -30.363  0.00  0.00    -0.057 A 
ATOM     26  C   UNL     1      41.011 -36.981 -30.095  0.00  0.00    -0.061 A 
ATOM     27  C   UNL     1      41.861 -36.140 -30.811  0.00  0.00    -0.062 A 
ATOM     28  C   UNL     1      41.344 -35.301 -31.796  0.00  0.00    -0.061 A 
ATOM     29  C   UNL     1      39.974 -35.296 -32.064  0.00  0.00    -0.057 A 
ENDBRANCH  23  24
ENDBRANCH  19  23
ENDBRANCH   1  16
TORSDOF 6
ENDMDL
MODEL 5
REMARK VINA RESULT:    -7.548      5.717      7.355
REMARK INTER + INTRA:         -10.832
REMARK INTER:                 -10.216
REMARK INTRA:                  -0.616
REMARK UNBOUND:                -0.637
REMARK  Name = cpd63.pdb
REMARK  8 active torsions:
REMARK  status: ('A' for Active; 'I' for Inactive)
REMARK    1  A    between atoms: C_1  and  O_2
REMARK    2  A    between atoms: O_2  and  C_3
REMARK    3  A    between atoms: C_8  and  O_9
REMARK    4  A    between atoms: O_9  and  C_10
REMARK    5  A    between atoms: C_13  and  C_14
REMARK    6  A    between atoms: C_14  and  C_15
REMARK    7  A    between atoms: N_18  and  C_19
REMARK    8  A    between atoms: C_19  and  C_20
REMARK                            x       y       z     vdW  Elec       q    Type
REMARK                         _______ _______ _______ _____ _____    ______ ____
ROOT
ATOM      1  C   UNL     1      34.024 -34.718 -28.995  0.00  0.00    -0.040 C 
ENDROOT
BRANCH   1  10
ATOM      2  C   UNL     1      39.157 -37.884 -29.202  0.00  0.00    +0.162 A 
ATOM      3  C   UNL     1      37.881 -37.849 -28.603  0.00  0.00    -0.012 A 
ATOM      4  C   UNL     1      36.929 -36.963 -29.072  0.00  0.00    -0.033 A 
ATOM      5  C   UNL     1      37.256 -36.107 -30.106  0.00  0.00    +0.025 A 
ATOM      6  C   UNL     1      38.499 -36.093 -30.716  0.00  0.00    -0.006 A 
ATOM      7  C   UNL     1      39.470 -36.999 -30.267  0.00  0.00    +0.162 A 
ATOM      8  C   UNL     1      36.090 -35.287 -30.409  0.00  0.00    +0.167 C 
ATOM      9  O   UNL     1      36.119 -34.370 -31.209  0.00  0.00    -0.292 OA
ATOM     10  C   UNL     1      34.891 -35.814 -29.629  0.00  0.00    +0.026 C 
ATOM     11  C   UNL     1      35.544 -36.732 -28.561  0.00  0.00    -0.017 C 
BRANCH   2  13
ATOM     12  C   UNL     1      40.881 -38.409 -27.612  0.00  0.00    +0.079 C 
ATOM     13  O   UNL     1      39.964 -38.824 -28.612  0.00  0.00    -0.491 OA
ENDBRANCH   2  13
BRANCH   7  14
ATOM     14  O   UNL     1      40.732 -37.047 -30.799  0.00  0.00    -0.491 OA
ATOM     15  C   UNL     1      41.497 -35.846 -30.820  0.00  0.00    +0.079 C 
ENDBRANCH   7  14
ENDBRANCH   1  10
BRANCH   1  16
ATOM     16  C   UNL     1      33.154 -33.929 -30.003  0.00  0.00    -0.038 C 
ATOM     17  C   UNL     1      33.367 -32.416 -29.927  0.00  0.00    -0.037 C 
ATOM     18  C   UNL     1      32.346 -31.649 -30.770  0.00  0.00    -0.001 C 
ATOM     19  N   UNL     1      30.943 -32.036 -30.559  0.00  0.00    -0.298 N 
ATOM     20  C   UNL     1      30.778 -33.069 -29.533  0.00  0.00    -0.001 C 
ATOM     21  C   UNL     1      31.663 -34.283 -29.825  0.00  0.00    -0.037 C 
ATOM     22  H   UNL     1      30.623 -32.463 -31.428  0.00  0.00    +0.000 HD
BRANCH  19  23
ATOM     23  C   UNL     1      30.103 -30.856 -30.298  0.00  0.00    +0.024 C 
BRANCH  23  24
ATOM     24  C   UNL     1      29.355 -30.361 -31.516  0.00  0.00    -0.033 A 
ATOM     25  C   UNL     1      29.180 -28.985 -31.729  0.00  0.00    -0.057 A 
ATOM     26  C   UNL     1      28.478 -28.523 -32.843  0.00  0.00    -0.061 A 
ATOM     27  C   UNL     1      27.947 -29.430 -33.757  0.00  0.00    -0.062 A 
ATOM     28  C   UNL     1      28.120 -30.799 -33.561  0.00  0.00    -0.061 A 
ATOM     29  C   UNL     1      28.819 -31.264 -32.446  0.00  0.00    -0.057 A 
ENDBRANCH  23  24
ENDBRANCH  19  23
ENDBRANCH   1  16
TORSDOF 6
ENDMDL
MODEL 6
REMARK VINA RESULT:    -7.463      4.471      6.604
REMARK INTER + INTRA:         -10.718
REMARK INTER:                  -9.755
REMARK INTRA:                  -0.963
REMARK UNBOUND:                -0.637
REMARK  Name = cpd63.pdb
REMARK  8 active torsions:
REMARK  status: ('A' for Active; 'I' for Inactive)
REMARK    1  A    between atoms: C_1  and  O_2
REMARK    2  A    between atoms: O_2  and  C_3
REMARK    3  A    between atoms: C_8  and  O_9
REMARK    4  A    between atoms: O_9  and  C_10
REMARK    5  A    between atoms: C_13  and  C_14
REMARK    6  A    between atoms: C_14  and  C_15
REMARK    7  A    between atoms: N_18  and  C_19
REMARK    8  A    between atoms: C_19  and  C_20
REMARK                            x       y       z     vdW  Elec       q    Type
REMARK                         _______ _______ _______ _____ _____    ______ ____
ROOT
ATOM      1  C   UNL     1      35.182 -38.427 -29.080  0.00  0.00    -0.040 C 
ENDROOT
BRANCH   1  10
ATOM      2  C   UNL     1      40.695 -36.647 -30.767  0.00  0.00    +0.162 A 
ATOM      3  C   UNL     1      39.327 -36.330 -30.886  0.00  0.00    -0.012 A 
ATOM      4  C   UNL     1      38.403 -36.979 -30.087  0.00  0.00    -0.033 A 
ATOM      5  C   UNL     1      38.838 -37.948 -29.204  0.00  0.00    +0.025 A 
ATOM      6  C   UNL     1      40.168 -38.304 -29.063  0.00  0.00    -0.006 A 
ATOM      7  C   UNL     1      41.122 -37.643 -29.850  0.00  0.00    +0.162 A 
ATOM      8  C   UNL     1      37.680 -38.469 -28.490  0.00  0.00    +0.167 C 
ATOM      9  O   UNL     1      37.750 -39.410 -27.720  0.00  0.00    -0.292 OA
ATOM     10  C   UNL     1      36.460 -37.618 -28.821  0.00  0.00    +0.026 C 
ATOM     11  C   UNL     1      36.916 -36.829 -30.079  0.00  0.00    -0.017 C 
BRANCH   2  13
ATOM     12  C   UNL     1      40.969 -35.652 -32.938  0.00  0.00    +0.079 C 
ATOM     13  O   UNL     1      41.460 -35.903 -31.631  0.00  0.00    -0.491 OA
ENDBRANCH   2  13
BRANCH   7  14
ATOM     14  O   UNL     1      42.458 -37.940 -29.790  0.00  0.00    -0.491 OA
ATOM     15  C   UNL     1      42.959 -38.953 -30.656  0.00  0.00    +0.079 C 
ENDBRANCH   7  14
ENDBRANCH   1  10
BRANCH   1  16
ATOM     16  C   UNL     1      35.195 -39.236 -30.398  0.00  0.00    -0.038 C 
ATOM     17  C   UNL     1      34.181 -38.729 -31.425  0.00  0.00    -0.037 C 
ATOM     18  C   UNL     1      34.057 -39.672 -32.624  0.00  0.00    -0.001 C 
ATOM     19  N   UNL     1      33.865 -41.091 -32.288  0.00  0.00    -0.298 N 
ATOM     20  C   UNL     1      33.781 -41.336 -30.846  0.00  0.00    -0.001 C 
ATOM     21  C   UNL     1      34.985 -40.738 -30.114  0.00  0.00    -0.037 C 
ATOM     22  H   UNL     1      34.702 -41.582 -32.599  0.00  0.00    +0.000 HD
BRANCH  19  23
ATOM     23  C   UNL     1      32.714 -41.654 -33.014  0.00  0.00    +0.024 C 
BRANCH  23  24
ATOM     24  C   UNL     1      33.103 -42.609 -34.121  0.00  0.00    -0.033 A 
ATOM     25  C   UNL     1      33.256 -42.143 -35.436  0.00  0.00    -0.057 A 
ATOM     26  C   UNL     1      33.600 -43.021 -36.465  0.00  0.00    -0.061 A 
ATOM     27  C   UNL     1      33.799 -44.372 -36.189  0.00  0.00    -0.062 A 
ATOM     28  C   UNL     1      33.657 -44.846 -34.886  0.00  0.00    -0.061 A 
ATOM     29  C   UNL     1      33.310 -43.970 -33.856  0.00  0.00    -0.057 A 
ENDBRANCH  23  24
ENDBRANCH  19  23
ENDBRANCH   1  16
TORSDOF 6
ENDMDL
MODEL 7
REMARK VINA RESULT:    -7.157     16.238     20.605
REMARK INTER + INTRA:         -10.304
REMARK INTER:                  -9.867
REMARK INTRA:                  -0.438
REMARK UNBOUND:                -0.637
REMARK  Name = cpd63.pdb
REMARK  8 active torsions:
REMARK  status: ('A' for Active; 'I' for Inactive)
REMARK    1  A    between atoms: C_1  and  O_2
REMARK    2  A    between atoms: O_2  and  C_3
REMARK    3  A    between atoms: C_8  and  O_9
REMARK    4  A    between atoms: O_9  and  C_10
REMARK    5  A    between atoms: C_13  and  C_14
REMARK    6  A    between atoms: C_14  and  C_15
REMARK    7  A    between atoms: N_18  and  C_19
REMARK    8  A    between atoms: C_19  and  C_20
REMARK                            x       y       z     vdW  Elec       q    Type
REMARK                         _______ _______ _______ _____ _____    ______ ____
ROOT
ATOM      1  C   UNL     1      41.495 -20.544 -38.313  0.00  0.00    -0.040 C 
ENDROOT
BRANCH   1  10
ATOM      2  C   UNL     1      38.371 -22.969 -33.756  0.00  0.00    +0.162 A 
ATOM      3  C   UNL     1      39.436 -23.217 -34.646  0.00  0.00    -0.012 A 
ATOM      4  C   UNL     1      39.927 -22.189 -35.429  0.00  0.00    -0.033 A 
ATOM      5  C   UNL     1      39.345 -20.938 -35.342  0.00  0.00    +0.025 A 
ATOM      6  C   UNL     1      38.289 -20.650 -34.495  0.00  0.00    -0.006 A 
ATOM      7  C   UNL     1      37.791 -21.676 -33.678  0.00  0.00    +0.162 A 
ATOM      8  C   UNL     1      40.041 -20.045 -36.258  0.00  0.00    +0.167 C 
ATOM      9  O   UNL     1      39.676 -18.902 -36.469  0.00  0.00    -0.292 OA
ATOM     10  C   UNL     1      41.274 -20.752 -36.809  0.00  0.00    +0.026 C 
ATOM     11  C   UNL     1      41.009 -22.241 -36.458  0.00  0.00    -0.017 C 
BRANCH   2  13
ATOM     12  C   UNL     1      37.359 -25.149 -33.750  0.00  0.00    +0.079 C 
ATOM     13  O   UNL     1      38.022 -24.100 -33.061  0.00  0.00    -0.491 OA
ENDBRANCH   2  13
BRANCH   7  14
ATOM     14  O   UNL     1      36.738 -21.488 -32.821  0.00  0.00    -0.491 OA
ATOM     15  C   UNL     1      36.171 -20.185 -32.732  0.00  0.00    +0.079 C 
ENDBRANCH   7  14
ENDBRANCH   1  10
BRANCH   1  16
ATOM     16  C   UNL     1      42.860 -19.914 -38.677  0.00  0.00    -0.038 C 
ATOM     17  C   UNL     1      42.867 -19.243 -40.052  0.00  0.00    -0.037 C 
ATOM     18  C   UNL     1      44.275 -18.823 -40.480  0.00  0.00    -0.001 C 
ATOM     19  N   UNL     1      45.305 -19.865 -40.351  0.00  0.00    -0.298 N 
ATOM     20  C   UNL     1      44.776 -21.144 -39.871  0.00  0.00    -0.001 C 
ATOM     21  C   UNL     1      43.987 -20.962 -38.571  0.00  0.00    -0.037 C 
ATOM     22  H   UNL     1      45.951 -19.550 -39.627  0.00  0.00    +0.000 HD
BRANCH  19  23
ATOM     23  C   UNL     1      46.065 -20.014 -41.603  0.00  0.00    +0.024 C 
BRANCH  23  24
ATOM     24  C   UNL     1      46.847 -21.306 -41.688  0.00  0.00    -0.033 A 
ATOM     25  C   UNL     1      46.403 -22.348 -42.517  0.00  0.00    -0.057 A 
ATOM     26  C   UNL     1      47.112 -23.548 -42.589  0.00  0.00    -0.061 A 
ATOM     27  C   UNL     1      48.272 -23.718 -41.837  0.00  0.00    -0.062 A 
ATOM     28  C   UNL     1      48.727 -22.689 -41.015  0.00  0.00    -0.061 A 
ATOM     29  C   UNL     1      48.018 -21.488 -40.939  0.00  0.00    -0.057 A 
ENDBRANCH  23  24
ENDBRANCH  19  23
ENDBRANCH   1  16
TORSDOF 6
ENDMDL
MODEL 8
REMARK VINA RESULT:    -7.149     26.269     30.586
REMARK INTER + INTRA:         -10.294
REMARK INTER:                  -9.513
REMARK INTRA:                  -0.781
REMARK UNBOUND:                -0.637
REMARK  Name = cpd63.pdb
REMARK  8 active torsions:
REMARK  status: ('A' for Active; 'I' for Inactive)
REMARK    1  A    between atoms: C_1  and  O_2
REMARK    2  A    between atoms: O_2  and  C_3
REMARK    3  A    between atoms: C_8  and  O_9
REMARK    4  A    between atoms: O_9  and  C_10
REMARK    5  A    between atoms: C_13  and  C_14
REMARK    6  A    between atoms: C_14  and  C_15
REMARK    7  A    between atoms: N_18  and  C_19
REMARK    8  A    between atoms: C_19  and  C_20
REMARK                            x       y       z     vdW  Elec       q    Type
REMARK                         _______ _______ _______ _____ _____    ______ ____
ROOT
ATOM      1  C   UNL     1      55.423 -32.926 -54.410  0.00  0.00    -0.040 C 
ENDROOT
BRANCH   1  10
ATOM      2  C   UNL     1      60.084 -29.471 -56.065  0.00  0.00    +0.162 A 
ATOM      3  C   UNL     1      59.487 -30.730 -56.278  0.00  0.00    -0.012 A 
ATOM      4  C   UNL     1      58.226 -30.984 -55.771  0.00  0.00    -0.033 A 
ATOM      5  C   UNL     1      57.584 -30.004 -55.038  0.00  0.00    +0.025 A 
ATOM      6  C   UNL     1      58.136 -28.759 -54.790  0.00  0.00    -0.006 A 
ATOM      7  C   UNL     1      59.405 -28.476 -55.314  0.00  0.00    +0.162 A 
ATOM      8  C   UNL     1      56.286 -30.518 -54.624  0.00  0.00    +0.167 C 
ATOM      9  O   UNL     1      55.543 -29.908 -53.877  0.00  0.00    -0.292 OA
ATOM     10  C   UNL     1      56.028 -31.849 -55.320  0.00  0.00    +0.026 C 
ATOM     11  C   UNL     1      57.435 -32.249 -55.842  0.00  0.00    -0.017 C 
BRANCH   2  13
ATOM     12  C   UNL     1      61.557 -30.090 -57.862  0.00  0.00    +0.079 C 
ATOM     13  O   UNL     1      61.327 -29.399 -56.643  0.00  0.00    -0.491 OA
ENDBRANCH   2  13
BRANCH   7  14
ATOM     14  O   UNL     1      60.036 -27.278 -55.106  0.00  0.00    -0.491 OA
ATOM     15  C   UNL     1      60.506 -26.986 -53.794  0.00  0.00    +0.079 C 
ENDBRANCH   7  14
ENDBRANCH   1  10
BRANCH   1  16
ATOM     16  C   UNL     1      56.336 -33.359 -53.239  0.00  0.00    -0.038 C 
ATOM     17  C   UNL     1      56.476 -34.878 -53.114  0.00  0.00    -0.037 C 
ATOM     18  C   UNL     1      57.198 -35.285 -51.828  0.00  0.00    -0.001 C 
ATOM     19  N   UNL     1      56.688 -34.658 -50.599  0.00  0.00    -0.298 N 
ATOM     20  C   UNL     1      55.538 -33.782 -50.832  0.00  0.00    -0.001 C 
ATOM     21  C   UNL     1      55.847 -32.742 -51.913  0.00  0.00    -0.037 C 
ATOM     22  H   UNL     1      57.429 -34.048 -50.253  0.00  0.00    +0.000 HD
BRANCH  19  23
ATOM     23  C   UNL     1      56.414 -35.670 -49.565  0.00  0.00    +0.024 C 
BRANCH  23  24
ATOM     24  C   UNL     1      55.965 -35.082 -48.245  0.00  0.00    -0.033 A 
ATOM     25  C   UNL     1      56.569 -33.917 -47.748  0.00  0.00    -0.057 A 
ATOM     26  C   UNL     1      56.170 -33.378 -46.524  0.00  0.00    -0.061 A 
ATOM     27  C   UNL     1      55.162 -33.995 -45.786  0.00  0.00    -0.062 A 
ATOM     28  C   UNL     1      54.550 -35.149 -46.272  0.00  0.00    -0.061 A 
ATOM     29  C   UNL     1      54.950 -35.692 -47.495  0.00  0.00    -0.057 A 
ENDBRANCH  23  24
ENDBRANCH  19  23
ENDBRANCH   1  16
TORSDOF 6
ENDMDL
MODEL 9
REMARK VINA RESULT:    -7.030     17.141     21.512
REMARK INTER + INTRA:         -10.134
REMARK INTER:                  -9.417
REMARK INTRA:                  -0.717
REMARK UNBOUND:                -0.637
REMARK  Name = cpd63.pdb
REMARK  8 active torsions:
REMARK  status: ('A' for Active; 'I' for Inactive)
REMARK    1  A    between atoms: C_1  and  O_2
REMARK    2  A    between atoms: O_2  and  C_3
REMARK    3  A    between atoms: C_8  and  O_9
REMARK    4  A    between atoms: O_9  and  C_10
REMARK    5  A    between atoms: C_13  and  C_14
REMARK    6  A    between atoms: C_14  and  C_15
REMARK    7  A    between atoms: N_18  and  C_19
REMARK    8  A    between atoms: C_19  and  C_20
REMARK                            x       y       z     vdW  Elec       q    Type
REMARK                         _______ _______ _______ _____ _____    ______ ____
ROOT
ATOM      1  C   UNL     1      45.608 -17.901 -36.254  0.00  0.00    -0.040 C 
ENDROOT
BRANCH   1  10
ATOM      2  C   UNL     1      40.627 -20.932 -34.700  0.00  0.00    +0.162 A 
ATOM      3  C   UNL     1      41.299 -20.364 -35.802  0.00  0.00    -0.012 A 
ATOM      4  C   UNL     1      42.601 -19.923 -35.655  0.00  0.00    -0.033 A 
ATOM      5  C   UNL     1      43.211 -20.022 -34.419  0.00  0.00    +0.025 A 
ATOM      6  C   UNL     1      42.587 -20.557 -33.305  0.00  0.00    -0.006 A 
ATOM      7  C   UNL     1      41.273 -21.029 -33.441  0.00  0.00    +0.162 A 
ATOM      8  C   UNL     1      44.564 -19.494 -34.532  0.00  0.00    +0.167 C 
ATOM      9  O   UNL     1      45.301 -19.359 -33.572  0.00  0.00    -0.292 OA
ATOM     10  C   UNL     1      44.877 -19.227 -35.999  0.00  0.00    +0.026 C 
ATOM     11  C   UNL     1      43.476 -19.258 -36.667  0.00  0.00    -0.017 C 
BRANCH   2  13
ATOM     12  C   UNL     1      39.124 -22.660 -35.432  0.00  0.00    +0.079 C 
ATOM     13  O   UNL     1      39.352 -21.317 -35.034  0.00  0.00    -0.491 OA
ENDBRANCH   2  13
BRANCH   7  14
ATOM     14  O   UNL     1      40.570 -21.559 -32.391  0.00  0.00    -0.491 OA
ATOM     15  C   UNL     1      41.085 -22.728 -31.762  0.00  0.00    +0.079 C 
ENDBRANCH   7  14
ENDBRANCH   1  10
BRANCH   1  16
ATOM     16  C   UNL     1      46.620 -17.945 -37.423  0.00  0.00    -0.038 C 
ATOM     17  C   UNL     1      46.069 -17.346 -38.719  0.00  0.00    -0.037 C 
ATOM     18  C   UNL     1      46.997 -17.597 -39.909  0.00  0.00    -0.001 C 
ATOM     19  N   UNL     1      47.445 -18.989 -40.071  0.00  0.00    -0.298 N 
ATOM     20  C   UNL     1      46.874 -19.898 -39.075  0.00  0.00    -0.001 C 
ATOM     21  C   UNL     1      47.121 -19.386 -37.653  0.00  0.00    -0.037 C 
ATOM     22  H   UNL     1      48.450 -18.995 -39.900  0.00  0.00    +0.000 HD
BRANCH  19  23
ATOM     23  C   UNL     1      47.216 -19.460 -41.447  0.00  0.00    +0.024 C 
BRANCH  23  24
ATOM     24  C   UNL     1      47.418 -20.949 -41.620  0.00  0.00    -0.033 A 
ATOM     25  C   UNL     1      46.362 -21.759 -42.067  0.00  0.00    -0.057 A 
ATOM     26  C   UNL     1      46.537 -23.135 -42.215  0.00  0.00    -0.061 A 
ATOM     27  C   UNL     1      47.769 -23.716 -41.922  0.00  0.00    -0.062 A 
ATOM     28  C   UNL     1      48.827 -22.923 -41.483  0.00  0.00    -0.061 A 
ATOM     29  C   UNL     1      48.654 -21.546 -41.332  0.00  0.00    -0.057 A 
ENDBRANCH  23  24
ENDBRANCH  19  23
ENDBRANCH   1  16
TORSDOF 6
ENDMDL
MODEL 10
REMARK VINA RESULT:    -6.938      6.697     11.816
REMARK INTER + INTRA:         -10.009
REMARK INTER:                  -9.236
REMARK INTRA:                  -0.774
REMARK UNBOUND:                -0.637
REMARK  Name = cpd63.pdb
REMARK  8 active torsions:
REMARK  status: ('A' for Active; 'I' for Inactive)
REMARK    1  A    between atoms: C_1  and  O_2
REMARK    2  A    between atoms: O_2  and  C_3
REMARK    3  A    between atoms: C_8  and  O_9
REMARK    4  A    between atoms: O_9  and  C_10
REMARK    5  A    between atoms: C_13  and  C_14
REMARK    6  A    between atoms: C_14  and  C_15
REMARK    7  A    between atoms: N_18  and  C_19
REMARK    8  A    between atoms: C_19  and  C_20
REMARK                            x       y       z     vdW  Elec       q    Type
REMARK                         _______ _______ _______ _____ _____    ______ ____
ROOT
ATOM      1  C   UNL     1      33.110 -32.031 -30.025  0.00  0.00    -0.040 C 
ENDROOT
BRANCH   1  10
ATOM      2  C   UNL     1      27.635 -33.222 -32.264  0.00  0.00    +0.162 A 
ATOM      3  C   UNL     1      29.012 -33.338 -32.542  0.00  0.00    -0.012 A 
ATOM      4  C   UNL     1      29.935 -33.075 -31.546  0.00  0.00    -0.033 A 
ATOM      5  C   UNL     1      29.489 -32.676 -30.301  0.00  0.00    +0.025 A 
ATOM      6  C   UNL     1      28.148 -32.533 -29.985  0.00  0.00    -0.006 A 
ATOM      7  C   UNL     1      27.197 -32.815 -30.976  0.00  0.00    +0.162 A 
ATOM      8  C   UNL     1      30.648 -32.467 -29.444  0.00  0.00    +0.167 C 
ATOM      9  O   UNL     1      30.562 -32.011 -28.318  0.00  0.00    -0.292 OA
ATOM     10  C   UNL     1      31.898 -32.962 -30.161  0.00  0.00    +0.026 C 
ATOM     11  C   UNL     1      31.427 -33.095 -31.634  0.00  0.00    -0.017 C 
BRANCH   2  13
ATOM     12  C   UNL     1      27.092 -32.808 -34.569  0.00  0.00    +0.079 C 
ATOM     13  O   UNL     1      26.873 -33.525 -33.364  0.00  0.00    -0.491 OA
ENDBRANCH   2  13
BRANCH   7  14
ATOM     14  O   UNL     1      25.850 -32.687 -30.760  0.00  0.00    -0.491 OA
ATOM     15  C   UNL     1      25.384 -32.685 -29.415  0.00  0.00    +0.079 C 
ENDBRANCH   7  14
ENDBRANCH   1  10
BRANCH   1  16
ATOM     16  C   UNL     1      34.459 -32.763 -29.835  0.00  0.00    -0.038 C 
ATOM     17  C   UNL     1      35.263 -32.892 -31.130  0.00  0.00    -0.037 C 
ATOM     18  C   UNL     1      36.480 -33.805 -30.964  0.00  0.00    -0.001 C 
ATOM     19  N   UNL     1      36.206 -35.105 -30.334  0.00  0.00    -0.298 N 
ATOM     20  C   UNL     1      34.789 -35.306 -30.019  0.00  0.00    -0.001 C 
ATOM     21  C   UNL     1      34.239 -34.146 -29.186  0.00  0.00    -0.037 C 
ATOM     22  H   UNL     1      36.686 -35.102 -29.435  0.00  0.00    +0.000 HD
BRANCH  19  23
ATOM     23  C   UNL     1      36.757 -36.208 -31.139  0.00  0.00    +0.024 C 
BRANCH  23  24
ATOM     24  C   UNL     1      38.223 -36.477 -30.876  0.00  0.00    -0.033 A 
ATOM     25  C   UNL     1      38.612 -37.253 -29.773  0.00  0.00    -0.057 A 
ATOM     26  C   UNL     1      39.963 -37.493 -29.516  0.00  0.00    -0.061 A 
ATOM     27  C   UNL     1      40.937 -36.963 -30.360  0.00  0.00    -0.062 A 
ATOM     28  C   UNL     1      40.563 -36.197 -31.463  0.00  0.00    -0.061 A 
ATOM     29  C   UNL     1      39.212 -35.953 -31.720  0.00  0.00    -0.057 A 
ENDBRANCH  23  24
ENDBRANCH  19  23
ENDBRANCH   1  16
TORSDOF 6
ENDMDL
MODEL 11
REMARK VINA RESULT:    -6.913     16.593     18.768
REMARK INTER + INTRA:          -9.975
REMARK INTER:                  -9.215
REMARK INTRA:                  -0.759
REMARK UNBOUND:                -0.637
REMARK  Name = cpd63.pdb
REMARK  8 active torsions:
REMARK  status: ('A' for Active; 'I' for Inactive)
REMARK    1  A    between atoms: C_1  and  O_2
REMARK    2  A    between atoms: O_2  and  C_3
REMARK    3  A    between atoms: C_8  and  O_9
REMARK    4  A    between atoms: O_9  and  C_10
REMARK    5  A    between atoms: C_13  and  C_14
REMARK    6  A    between atoms: C_14  and  C_15
REMARK    7  A    between atoms: N_18  and  C_19
REMARK    8  A    between atoms: C_19  and  C_20
REMARK                            x       y       z     vdW  Elec       q    Type
REMARK                         _______ _______ _______ _____ _____    ______ ____
ROOT
ATOM      1  C   UNL     1      40.040 -20.951 -38.889  0.00  0.00    -0.040 C 
ENDROOT
BRANCH   1  10
ATOM      2  C   UNL     1      46.012 -20.314 -39.468  0.00  0.00    +0.162 A 
ATOM      3  C   UNL     1      44.962 -20.262 -38.528  0.00  0.00    -0.012 A 
ATOM      4  C   UNL     1      43.704 -20.713 -38.883  0.00  0.00    -0.033 A 
ATOM      5  C   UNL     1      43.493 -21.183 -40.165  0.00  0.00    +0.025 A 
ATOM      6  C   UNL     1      44.488 -21.239 -41.126  0.00  0.00    -0.006 A 
ATOM      7  C   UNL     1      45.776 -20.805 -40.778  0.00  0.00    +0.162 A 
ATOM      8  C   UNL     1      42.101 -21.594 -40.279  0.00  0.00    +0.167 C 
ATOM      9  O   UNL     1      41.603 -21.953 -41.331  0.00  0.00    -0.292 OA
ATOM     10  C   UNL     1      41.451 -21.554 -38.901  0.00  0.00    +0.026 C 
ATOM     11  C   UNL     1      42.453 -20.710 -38.067  0.00  0.00    -0.017 C 
BRANCH   2  13
ATOM     12  C   UNL     1      47.179 -19.318 -37.616  0.00  0.00    +0.079 C 
ATOM     13  O   UNL     1      47.184 -19.832 -38.939  0.00  0.00    -0.491 OA
ENDBRANCH   2  13
BRANCH   7  14
ATOM     14  O   UNL     1      46.818 -20.809 -41.667  0.00  0.00    -0.491 OA
ATOM     15  C   UNL     1      47.542 -22.021 -41.846  0.00  0.00    +0.079 C 
ENDBRANCH   7  14
ENDBRANCH   1  10
BRANCH   1  16
ATOM     16  C   UNL     1      39.135 -21.466 -37.746  0.00  0.00    -0.038 C 
ATOM     17  C   UNL     1      38.966 -20.456 -36.609  0.00  0.00    -0.037 C 
ATOM     18  C   UNL     1      38.254 -21.065 -35.399  0.00  0.00    -0.001 C 
ATOM     19  N   UNL     1      38.794 -22.354 -34.939  0.00  0.00    -0.298 N 
ATOM     20  C   UNL     1      39.958 -22.799 -35.708  0.00  0.00    -0.001 C 
ATOM     21  C   UNL     1      39.656 -22.816 -37.209  0.00  0.00    -0.037 C 
ATOM     22  H   UNL     1      38.071 -23.052 -35.111  0.00  0.00    +0.000 HD
BRANCH  19  23
ATOM     23  C   UNL     1      39.062 -22.327 -33.492  0.00  0.00    +0.024 C 
BRANCH  23  24
ATOM     24  C   UNL     1      39.725 -21.050 -33.021  0.00  0.00    -0.033 A 
ATOM     25  C   UNL     1      38.963 -20.042 -32.409  0.00  0.00    -0.057 A 
ATOM     26  C   UNL     1      39.565 -18.856 -31.986  0.00  0.00    -0.061 A 
ATOM     27  C   UNL     1      40.934 -18.667 -32.167  0.00  0.00    -0.062 A 
ATOM     28  C   UNL     1      41.702 -19.663 -32.767  0.00  0.00    -0.061 A 
ATOM     29  C   UNL     1      41.101 -20.849 -33.194  0.00  0.00    -0.057 A 
ENDBRANCH  23  24
ENDBRANCH  19  23
ENDBRANCH   1  16
TORSDOF 6
ENDMDL
MODEL 12
REMARK VINA RESULT:    -6.890     16.470     18.810
REMARK INTER + INTRA:          -9.944
REMARK INTER:                  -9.354
REMARK INTRA:                  -0.591
REMARK UNBOUND:                -0.637
REMARK  Name = cpd63.pdb
REMARK  8 active torsions:
REMARK  status: ('A' for Active; 'I' for Inactive)
REMARK    1  A    between atoms: C_1  and  O_2
REMARK    2  A    between atoms: O_2  and  C_3
REMARK    3  A    between atoms: C_8  and  O_9
REMARK    4  A    between atoms: O_9  and  C_10
REMARK    5  A    between atoms: C_13  and  C_14
REMARK    6  A    between atoms: C_14  and  C_15
REMARK    7  A    between atoms: N_18  and  C_19
REMARK    8  A    between atoms: C_19  and  C_20
REMARK                            x       y       z     vdW  Elec       q    Type
REMARK                         _______ _______ _______ _____ _____    ______ ____
ROOT
ATOM      1  C   UNL     1      40.392 -21.021 -38.599  0.00  0.00    -0.040 C 
ENDROOT
BRANCH   1  10
ATOM      2  C   UNL     1      46.164 -20.842 -40.350  0.00  0.00    +0.162 A 
ATOM      3  C   UNL     1      45.056 -21.704 -40.216  0.00  0.00    -0.012 A 
ATOM      4  C   UNL     1      43.809 -21.177 -39.934  0.00  0.00    -0.033 A 
ATOM      5  C   UNL     1      43.678 -19.812 -39.762  0.00  0.00    +0.025 A 
ATOM      6  C   UNL     1      44.738 -18.928 -39.868  0.00  0.00    -0.006 A 
ATOM      7  C   UNL     1      46.006 -19.443 -40.174  0.00  0.00    +0.162 A 
ATOM      8  C   UNL     1      42.279 -19.519 -39.479  0.00  0.00    +0.167 C 
ATOM      9  O   UNL     1      41.886 -18.406 -39.180  0.00  0.00    -0.292 OA
ATOM     10  C   UNL     1      41.450 -20.781 -39.684  0.00  0.00    +0.026 C 
ATOM     11  C   UNL     1      42.523 -21.903 -39.711  0.00  0.00    -0.017 C 
BRANCH   2  13
ATOM     12  C   UNL     1      47.226 -22.937 -40.860  0.00  0.00    +0.079 C 
ATOM     13  O   UNL     1      47.312 -21.539 -40.635  0.00  0.00    -0.491 OA
ENDBRANCH   2  13
BRANCH   7  14
ATOM     14  O   UNL     1      47.116 -18.646 -40.283  0.00  0.00    -0.491 OA
ATOM     15  C   UNL     1      46.937 -17.304 -40.724  0.00  0.00    +0.079 C 
ENDBRANCH   7  14
ENDBRANCH   1  10
BRANCH   1  16
ATOM     16  C   UNL     1      40.916 -21.772 -37.352  0.00  0.00    -0.038 C 
ATOM     17  C   UNL     1      39.812 -22.486 -36.570  0.00  0.00    -0.037 C 
ATOM     18  C   UNL     1      40.315 -23.032 -35.233  0.00  0.00    -0.001 C 
ATOM     19  N   UNL     1      41.065 -22.073 -34.408  0.00  0.00    -0.298 N 
ATOM     20  C   UNL     1      41.154 -20.740 -35.009  0.00  0.00    -0.001 C 
ATOM     21  C   UNL     1      41.707 -20.814 -36.435  0.00  0.00    -0.037 C 
ATOM     22  H   UNL     1      42.024 -22.415 -34.361  0.00  0.00    +0.000 HD
BRANCH  19  23
ATOM     23  C   UNL     1      40.533 -22.028 -33.035  0.00  0.00    +0.024 C 
BRANCH  23  24
ATOM     24  C   UNL     1      39.194 -21.332 -32.926  0.00  0.00    -0.033 A 
ATOM     25  C   UNL     1      39.132 -19.941 -32.750  0.00  0.00    -0.057 A 
ATOM     26  C   UNL     1      37.900 -19.294 -32.634  0.00  0.00    -0.061 A 
ATOM     27  C   UNL     1      36.719 -20.030 -32.696  0.00  0.00    -0.062 A 
ATOM     28  C   UNL     1      36.767 -21.411 -32.877  0.00  0.00    -0.061 A 
ATOM     29  C   UNL     1      37.998 -22.060 -32.991  0.00  0.00    -0.057 A 
ENDBRANCH  23  24
ENDBRANCH  19  23
ENDBRANCH   1  16
TORSDOF 6
ENDMDL
MODEL 13
REMARK VINA RESULT:    -6.860     24.716     28.149
REMARK INTER + INTRA:          -9.904
REMARK INTER:                  -8.968
REMARK INTRA:                  -0.935
REMARK UNBOUND:                -0.637
REMARK  Name = cpd63.pdb
REMARK  8 active torsions:
REMARK  status: ('A' for Active; 'I' for Inactive)
REMARK    1  A    between atoms: C_1  and  O_2
REMARK    2  A    between atoms: O_2  and  C_3
REMARK    3  A    between atoms: C_8  and  O_9
REMARK    4  A    between atoms: O_9  and  C_10
REMARK    5  A    between atoms: C_13  and  C_14
REMARK    6  A    between atoms: C_14  and  C_15
REMARK    7  A    between atoms: N_18  and  C_19
REMARK    8  A    between atoms: C_19  and  C_20
REMARK                            x       y       z     vdW  Elec       q    Type
REMARK                         _______ _______ _______ _____ _____    ______ ____
ROOT
ATOM      1  C   UNL     1      53.847 -33.352 -54.964  0.00  0.00    -0.040 C 
ENDROOT
BRANCH   1  10
ATOM      2  C   UNL     1      48.414 -31.047 -53.710  0.00  0.00    +0.162 A 
ATOM      3  C   UNL     1      49.772 -30.703 -53.864  0.00  0.00    -0.012 A 
ATOM      4  C   UNL     1      50.657 -31.628 -54.388  0.00  0.00    -0.033 A 
ATOM      5  C   UNL     1      50.196 -32.886 -54.726  0.00  0.00    +0.025 A 
ATOM      6  C   UNL     1      48.876 -33.275 -54.578  0.00  0.00    -0.006 A 
ATOM      7  C   UNL     1      47.960 -32.343 -54.069  0.00  0.00    +0.162 A 
ATOM      8  C   UNL     1      51.314 -33.658 -55.249  0.00  0.00    +0.167 C 
ATOM      9  O   UNL     1      51.225 -34.840 -55.530  0.00  0.00    -0.292 OA
ATOM     10  C   UNL     1      52.518 -32.741 -55.428  0.00  0.00    +0.026 C 
ATOM     11  C   UNL     1      52.130 -31.489 -54.595  0.00  0.00    -0.017 C 
BRANCH   2  13
ATOM     12  C   UNL     1      47.586 -28.801 -53.923  0.00  0.00    +0.079 C 
ATOM     13  O   UNL     1      47.688 -30.008 -53.184  0.00  0.00    -0.491 OA
ENDBRANCH   2  13
BRANCH   7  14
ATOM     14  O   UNL     1      46.637 -32.644 -53.873  0.00  0.00    -0.491 OA
ATOM     15  C   UNL     1      46.299 -33.515 -52.798  0.00  0.00    +0.079 C 
ENDBRANCH   7  14
ENDBRANCH   1  10
BRANCH   1  16
ATOM     16  C   UNL     1      54.216 -33.040 -53.495  0.00  0.00    -0.038 C 
ATOM     17  C   UNL     1      55.724 -33.025 -53.242  0.00  0.00    -0.037 C 
ATOM     18  C   UNL     1      56.057 -32.934 -51.751  0.00  0.00    -0.001 C 
ATOM     19  N   UNL     1      55.346 -33.892 -50.892  0.00  0.00    -0.298 N 
ATOM     20  C   UNL     1      54.473 -34.800 -51.639  0.00  0.00    -0.001 C 
ATOM     21  C   UNL     1      53.508 -34.023 -52.538  0.00  0.00    -0.037 C 
ATOM     22  H   UNL     1      54.725 -33.347 -50.295  0.00  0.00    +0.000 HD
BRANCH  19  23
ATOM     23  C   UNL     1      56.287 -34.618 -50.021  0.00  0.00    +0.024 C 
BRANCH  23  24
ATOM     24  C   UNL     1      55.984 -34.472 -48.546  0.00  0.00    -0.033 A 
ATOM     25  C   UNL     1      56.575 -33.439 -47.802  0.00  0.00    -0.057 A 
ATOM     26  C   UNL     1      56.313 -33.308 -46.437  0.00  0.00    -0.061 A 
ATOM     27  C   UNL     1      55.454 -34.205 -45.804  0.00  0.00    -0.062 A 
ATOM     28  C   UNL     1      54.856 -35.231 -46.533  0.00  0.00    -0.061 A 
ATOM     29  C   UNL     1      55.120 -35.366 -47.898  0.00  0.00    -0.057 A 
ENDBRANCH  23  24
ENDBRANCH  19  23
ENDBRANCH   1  16
TORSDOF 6
ENDMDL
MODEL 14
REMARK VINA RESULT:    -6.855     16.387     20.510
REMARK INTER + INTRA:          -9.896
REMARK INTER:                  -9.382
REMARK INTRA:                  -0.514
REMARK UNBOUND:                -0.637
REMARK  Name = cpd63.pdb
REMARK  8 active torsions:
REMARK  status: ('A' for Active; 'I' for Inactive)
REMARK    1  A    between atoms: C_1  and  O_2
REMARK    2  A    between atoms: O_2  and  C_3
REMARK    3  A    between atoms: C_8  and  O_9
REMARK    4  A    between atoms: O_9  and  C_10
REMARK    5  A    between atoms: C_13  and  C_14
REMARK    6  A    between atoms: C_14  and  C_15
REMARK    7  A    between atoms: N_18  and  C_19
REMARK    8  A    between atoms: C_19  and  C_20
REMARK                            x       y       z     vdW  Elec       q    Type
REMARK                         _______ _______ _______ _____ _____    ______ ____
ROOT
ATOM      1  C   UNL     1      41.737 -18.575 -37.071  0.00  0.00    -0.040 C 
ENDROOT
BRANCH   1  10
ATOM      2  C   UNL     1      39.004 -22.777 -33.712  0.00  0.00    +0.162 A 
ATOM      3  C   UNL     1      38.898 -22.061 -34.923  0.00  0.00    -0.012 A 
ATOM      4  C   UNL     1      39.964 -21.299 -35.362  0.00  0.00    -0.033 A 
ATOM      5  C   UNL     1      41.108 -21.231 -34.590  0.00  0.00    +0.025 A 
ATOM      6  C   UNL     1      41.254 -21.902 -33.388  0.00  0.00    -0.006 A 
ATOM      7  C   UNL     1      40.190 -22.697 -32.937  0.00  0.00    +0.162 A 
ATOM      8  C   UNL     1      42.069 -20.373 -35.270  0.00  0.00    +0.167 C 
ATOM      9  O   UNL     1      43.131 -20.047 -34.770  0.00  0.00    -0.292 OA
ATOM     10  C   UNL     1      41.549 -20.042 -36.664  0.00  0.00    +0.026 C 
ATOM     11  C   UNL     1      40.050 -20.437 -36.580  0.00  0.00    -0.017 C 
BRANCH   2  13
ATOM     12  C   UNL     1      37.890 -24.896 -33.500  0.00  0.00    +0.079 C 
ATOM     13  O   UNL     1      37.856 -23.479 -33.441  0.00  0.00    -0.491 OA
ENDBRANCH   2  13
BRANCH   7  14
ATOM     14  O   UNL     1      40.238 -23.385 -31.752  0.00  0.00    -0.491 OA
ATOM     15  C   UNL     1      41.461 -24.018 -31.393  0.00  0.00    +0.079 C 
ENDBRANCH   7  14
ENDBRANCH   1  10
BRANCH   1  16
ATOM     16  C   UNL     1      42.920 -18.327 -38.037  0.00  0.00    -0.038 C 
ATOM     17  C   UNL     1      42.476 -17.913 -39.441  0.00  0.00    -0.037 C 
ATOM     18  C   UNL     1      43.642 -17.889 -40.430  0.00  0.00    -0.001 C 
ATOM     19  N   UNL     1      44.485 -19.094 -40.434  0.00  0.00    -0.298 N 
ATOM     20  C   UNL     1      44.017 -20.128 -39.508  0.00  0.00    -0.001 C 
ATOM     21  C   UNL     1      43.840 -19.565 -38.095  0.00  0.00    -0.037 C 
ATOM     22  H   UNL     1      45.401 -18.812 -40.086  0.00  0.00    +0.000 HD
BRANCH  19  23
ATOM     23  C   UNL     1      44.660 -19.611 -41.801  0.00  0.00    +0.024 C 
BRANCH  23  24
ATOM     24  C   UNL     1      45.646 -20.755 -41.896  0.00  0.00    -0.033 A 
ATOM     25  C   UNL     1      45.345 -21.886 -42.671  0.00  0.00    -0.057 A 
ATOM     26  C   UNL     1      46.244 -22.951 -42.751  0.00  0.00    -0.061 A 
ATOM     27  C   UNL     1      47.452 -22.895 -42.060  0.00  0.00    -0.062 A 
ATOM     28  C   UNL     1      47.766 -21.775 -41.292  0.00  0.00    -0.061 A 
ATOM     29  C   UNL     1      46.867 -20.710 -41.208  0.00  0.00    -0.057 A 
ENDBRANCH  23  24
ENDBRANCH  19  23
ENDBRANCH   1  16
TORSDOF 6
ENDMDL
MODEL 15
REMARK VINA RESULT:    -6.822     16.217     20.491
REMARK INTER + INTRA:          -9.852
REMARK INTER:                  -9.306
REMARK INTRA:                  -0.547
REMARK UNBOUND:                -0.637
REMARK  Name = cpd63.pdb
REMARK  8 active torsions:
REMARK  status: ('A' for Active; 'I' for Inactive)
REMARK    1  A    between atoms: C_1  and  O_2
REMARK    2  A    between atoms: O_2  and  C_3
REMARK    3  A    between atoms: C_8  and  O_9
REMARK    4  A    between atoms: O_9  and  C_10
REMARK    5  A    between atoms: C_13  and  C_14
REMARK    6  A    between atoms: C_14  and  C_15
REMARK    7  A    between atoms: N_18  and  C_19
REMARK    8  A    between atoms: C_19  and  C_20
REMARK                            x       y       z     vdW  Elec       q    Type
REMARK                         _______ _______ _______ _____ _____    ______ ____
ROOT
ATOM      1  C   UNL     1      40.955 -20.138 -39.376  0.00  0.00    -0.040 C 
ENDROOT
BRANCH   1  10
ATOM      2  C   UNL     1      39.387 -21.281 -33.663  0.00  0.00    +0.162 A 
ATOM      3  C   UNL     1      39.588 -20.234 -34.585  0.00  0.00    -0.012 A 
ATOM      4  C   UNL     1      39.762 -20.527 -35.925  0.00  0.00    -0.033 A 
ATOM      5  C   UNL     1      39.764 -21.847 -36.332  0.00  0.00    +0.025 A 
ATOM      6  C   UNL     1      39.587 -22.909 -35.462  0.00  0.00    -0.006 A 
ATOM      7  C   UNL     1      39.388 -22.630 -34.102  0.00  0.00    +0.162 A 
ATOM      8  C   UNL     1      39.963 -21.882 -37.774  0.00  0.00    +0.167 C 
ATOM      9  O   UNL     1      40.112 -22.919 -38.395  0.00  0.00    -0.292 OA
ATOM     10  C   UNL     1      39.884 -20.463 -38.326  0.00  0.00    +0.026 C 
ATOM     11  C   UNL     1      40.029 -19.585 -37.054  0.00  0.00    -0.017 C 
BRANCH   2  13
ATOM     12  C   UNL     1      39.564 -19.451 -32.113  0.00  0.00    +0.079 C 
ATOM     13  O   UNL     1      39.228 -20.803 -32.386  0.00  0.00    -0.491 OA
ENDBRANCH   2  13
BRANCH   7  14
ATOM     14  O   UNL     1      39.220 -23.617 -33.166  0.00  0.00    -0.491 OA
ATOM     15  C   UNL     1      38.124 -24.512 -33.324  0.00  0.00    +0.079 C 
ENDBRANCH   7  14
ENDBRANCH   1  10
BRANCH   1  16
ATOM     16  C   UNL     1      42.321 -19.716 -38.785  0.00  0.00    -0.038 C 
ATOM     17  C   UNL     1      43.158 -18.870 -39.747  0.00  0.00    -0.037 C 
ATOM     18  C   UNL     1      44.582 -18.653 -39.231  0.00  0.00    -0.001 C 
ATOM     19  N   UNL     1      45.280 -19.869 -38.789  0.00  0.00    -0.298 N 
ATOM     20  C   UNL     1      44.487 -21.087 -38.969  0.00  0.00    -0.001 C 
ATOM     21  C   UNL     1      43.112 -20.953 -38.311  0.00  0.00    -0.037 C 
ATOM     22  H   UNL     1      45.416 -19.779 -37.783  0.00  0.00    +0.000 HD
BRANCH  19  23
ATOM     23  C   UNL     1      46.608 -19.973 -39.418  0.00  0.00    +0.024 C 
BRANCH  23  24
ATOM     24  C   UNL     1      46.726 -21.116 -40.402  0.00  0.00    -0.033 A 
ATOM     25  C   UNL     1      47.587 -22.192 -40.136  0.00  0.00    -0.057 A 
ATOM     26  C   UNL     1      47.711 -23.243 -41.046  0.00  0.00    -0.061 A 
ATOM     27  C   UNL     1      46.975 -23.230 -42.229  0.00  0.00    -0.062 A 
ATOM     28  C   UNL     1      46.112 -22.170 -42.502  0.00  0.00    -0.061 A 
ATOM     29  C   UNL     1      45.988 -21.117 -41.594  0.00  0.00    -0.057 A 
ENDBRANCH  23  24
ENDBRANCH  19  23
ENDBRANCH   1  16
TORSDOF 6
ENDMDL
MODEL 16
REMARK VINA RESULT:    -6.788     17.155     19.800
REMARK INTER + INTRA:          -9.806
REMARK INTER:                  -8.946
REMARK INTRA:                  -0.860
REMARK UNBOUND:                -0.637
REMARK  Name = cpd63.pdb
REMARK  8 active torsions:
REMARK  status: ('A' for Active; 'I' for Inactive)
REMARK    1  A    between atoms: C_1  and  O_2
REMARK    2  A    between atoms: O_2  and  C_3
REMARK    3  A    between atoms: C_8  and  O_9
REMARK    4  A    between atoms: O_9  and  C_10
REMARK    5  A    between atoms: C_13  and  C_14
REMARK    6  A    between atoms: C_14  and  C_15
REMARK    7  A    between atoms: N_18  and  C_19
REMARK    8  A    between atoms: C_19  and  C_20
REMARK                            x       y       z     vdW  Elec       q    Type
REMARK                         _______ _______ _______ _____ _____    ______ ____
ROOT
ATOM      1  C   UNL     1      45.485 -17.594 -35.776  0.00  0.00    -0.040 C 
ENDROOT
BRANCH   1  10
ATOM      2  C   UNL     1      45.801 -20.774 -40.894  0.00  0.00    +0.162 A 
ATOM      3  C   UNL     1      45.497 -19.496 -40.382  0.00  0.00    -0.012 A 
ATOM      4  C   UNL     1      45.792 -19.199 -39.064  0.00  0.00    -0.033 A 
ATOM      5  C   UNL     1      46.356 -20.174 -38.263  0.00  0.00    +0.025 A 
ATOM      6  C   UNL     1      46.657 -21.447 -38.716  0.00  0.00    -0.006 A 
ATOM      7  C   UNL     1      46.384 -21.759 -40.056  0.00  0.00    +0.162 A 
ATOM      8  C   UNL     1      46.565 -19.613 -36.936  0.00  0.00    +0.167 C 
ATOM      9  O   UNL     1      46.954 -20.277 -35.993  0.00  0.00    -0.292 OA
ATOM     10  C   UNL     1      46.287 -18.114 -36.975  0.00  0.00    +0.026 C 
ATOM     11  C   UNL     1      45.519 -17.937 -38.313  0.00  0.00    -0.017 C 
BRANCH   2  13
ATOM     12  C   UNL     1      44.536 -19.940 -42.761  0.00  0.00    +0.079 C 
ATOM     13  O   UNL     1      45.445 -20.884 -42.215  0.00  0.00    -0.491 OA
ENDBRANCH   2  13
BRANCH   7  14
ATOM     14  O   UNL     1      46.634 -22.997 -40.588  0.00  0.00    -0.491 OA
ATOM     15  C   UNL     1      47.942 -23.263 -41.084  0.00  0.00    +0.079 C 
ENDBRANCH   7  14
ENDBRANCH   1  10
BRANCH   1  16
ATOM     16  C   UNL     1      44.280 -18.480 -35.381  0.00  0.00    -0.038 C 
ATOM     17  C   UNL     1      42.944 -17.736 -35.424  0.00  0.00    -0.037 C 
ATOM     18  C   UNL     1      41.806 -18.562 -34.823  0.00  0.00    -0.001 C 
ATOM     19  N   UNL     1      42.087 -19.148 -33.503  0.00  0.00    -0.298 N 
ATOM     20  C   UNL     1      43.408 -18.789 -32.982  0.00  0.00    -0.001 C 
ATOM     21  C   UNL     1      44.508 -19.118 -33.994  0.00  0.00    -0.037 C 
ATOM     22  H   UNL     1      42.111 -20.159 -33.631  0.00  0.00    +0.000 HD
BRANCH  19  23
ATOM     23  C   UNL     1      41.010 -18.837 -32.548  0.00  0.00    +0.024 C 
BRANCH  23  24
ATOM     24  C   UNL     1      39.814 -19.756 -32.661  0.00  0.00    -0.033 A 
ATOM     25  C   UNL     1      39.997 -21.140 -32.804  0.00  0.00    -0.057 A 
ATOM     26  C   UNL     1      38.898 -21.993 -32.924  0.00  0.00    -0.061 A 
ATOM     27  C   UNL     1      37.606 -21.471 -32.900  0.00  0.00    -0.062 A 
ATOM     28  C   UNL     1      37.411 -20.099 -32.752  0.00  0.00    -0.061 A 
ATOM     29  C   UNL     1      38.509 -19.245 -32.635  0.00  0.00    -0.057 A 
ENDBRANCH  23  24
ENDBRANCH  19  23
ENDBRANCH   1  16
TORSDOF 6
ENDMDL
MODEL 17
REMARK VINA RESULT:    -6.753     16.427     20.631
REMARK INTER + INTRA:          -9.759
REMARK INTER:                  -8.850
REMARK INTRA:                  -0.909
REMARK UNBOUND:                -0.637
REMARK  Name = cpd63.pdb
REMARK  8 active torsions:
REMARK  status: ('A' for Active; 'I' for Inactive)
REMARK    1  A    between atoms: C_1  and  O_2
REMARK    2  A    between atoms: O_2  and  C_3
REMARK    3  A    between atoms: C_8  and  O_9
REMARK    4  A    between atoms: O_9  and  C_10
REMARK    5  A    between atoms: C_13  and  C_14
REMARK    6  A    between atoms: C_14  and  C_15
REMARK    7  A    between atoms: N_18  and  C_19
REMARK    8  A    between atoms: C_19  and  C_20
REMARK                            x       y       z     vdW  Elec       q    Type
REMARK                         _______ _______ _______ _____ _____    ______ ____
ROOT
ATOM      1  C   UNL     1      43.549 -18.430 -33.831  0.00  0.00    -0.040 C 
ENDROOT
BRANCH   1  10
ATOM      2  C   UNL     1      38.622 -21.791 -32.919  0.00  0.00    +0.162 A 
ATOM      3  C   UNL     1      40.029 -21.853 -32.979  0.00  0.00    -0.012 A 
ATOM      4  C   UNL     1      40.764 -20.682 -33.024  0.00  0.00    -0.033 A 
ATOM      5  C   UNL     1      40.101 -19.470 -33.037  0.00  0.00    +0.025 A 
ATOM      6  C   UNL     1      38.721 -19.359 -32.995  0.00  0.00    -0.006 A 
ATOM      7  C   UNL     1      37.961 -20.536 -32.928  0.00  0.00    +0.162 A 
ATOM      8  C   UNL     1      41.093 -18.405 -33.085  0.00  0.00    +0.167 C 
ATOM      9  O   UNL     1      40.795 -17.231 -33.210  0.00  0.00    -0.292 OA
ATOM     10  C   UNL     1      42.481 -19.004 -32.891  0.00  0.00    +0.026 C 
ATOM     11  C   UNL     1      42.245 -20.519 -33.132  0.00  0.00    -0.017 C 
BRANCH   2  13
ATOM     12  C   UNL     1      38.407 -23.982 -33.884  0.00  0.00    +0.079 C 
ATOM     13  O   UNL     1      38.065 -23.045 -32.875  0.00  0.00    -0.491 OA
ENDBRANCH   2  13
BRANCH   7  14
ATOM     14  O   UNL     1      36.590 -20.524 -32.900  0.00  0.00    -0.491 OA
ATOM     15  C   UNL     1      35.931 -19.263 -32.877  0.00  0.00    +0.079 C 
ENDBRANCH   7  14
ENDBRANCH   1  10
BRANCH   1  16
ATOM     16  C   UNL     1      44.029 -19.411 -34.927  0.00  0.00    -0.038 C 
ATOM     17  C   UNL     1      45.553 -19.493 -35.037  0.00  0.00    -0.037 C 
ATOM     18  C   UNL     1      45.999 -20.293 -36.262  0.00  0.00    -0.001 C 
ATOM     19  N   UNL     1      45.357 -19.909 -37.528  0.00  0.00    -0.298 N 
ATOM     20  C   UNL     1      44.430 -18.784 -37.387  0.00  0.00    -0.001 C 
ATOM     21  C   UNL     1      43.398 -19.054 -36.289  0.00  0.00    -0.037 C 
ATOM     22  H   UNL     1      44.783 -20.700 -37.818  0.00  0.00    +0.000 HD
BRANCH  19  23
ATOM     23  C   UNL     1      46.362 -19.672 -38.578  0.00  0.00    +0.024 C 
BRANCH  23  24
ATOM     24  C   UNL     1      46.320 -20.686 -39.700  0.00  0.00    -0.033 A 
ATOM     25  C   UNL     1      45.606 -20.410 -40.876  0.00  0.00    -0.057 A 
ATOM     26  C   UNL     1      45.551 -21.347 -41.909  0.00  0.00    -0.061 A 
ATOM     27  C   UNL     1      46.210 -22.568 -41.778  0.00  0.00    -0.062 A 
ATOM     28  C   UNL     1      46.927 -22.852 -40.617  0.00  0.00    -0.061 A 
ATOM     29  C   UNL     1      46.982 -21.916 -39.582  0.00  0.00    -0.057 A 
ENDBRANCH  23  24
ENDBRANCH  19  23
ENDBRANCH   1  16
TORSDOF 6
ENDMDL
MODEL 18
REMARK VINA RESULT:    -6.668     31.557     34.825
REMARK INTER + INTRA:          -9.644
REMARK INTER:                  -8.840
REMARK INTRA:                  -0.805
REMARK UNBOUND:                -0.637
REMARK  Name = cpd63.pdb
REMARK  8 active torsions:
REMARK  status: ('A' for Active; 'I' for Inactive)
REMARK    1  A    between atoms: C_1  and  O_2
REMARK    2  A    between atoms: O_2  and  C_3
REMARK    3  A    between atoms: C_8  and  O_9
REMARK    4  A    between atoms: O_9  and  C_10
REMARK    5  A    between atoms: C_13  and  C_14
REMARK    6  A    between atoms: C_14  and  C_15
REMARK    7  A    between atoms: N_18  and  C_19
REMARK    8  A    between atoms: C_19  and  C_20
REMARK                            x       y       z     vdW  Elec       q    Type
REMARK                         _______ _______ _______ _____ _____    ______ ____
ROOT
ATOM      1  C   UNL     1      62.844 -18.536  -9.233  0.00  0.00    -0.040 C 
ENDROOT
BRANCH   1  10
ATOM      2  C   UNL     1      57.006 -18.127 -10.703  0.00  0.00    +0.162 A 
ATOM      3  C   UNL     1      57.891 -18.135  -9.605  0.00  0.00    -0.012 A 
ATOM      4  C   UNL     1      59.254 -18.046  -9.824  0.00  0.00    -0.033 A 
ATOM      5  C   UNL     1      59.725 -17.978 -11.121  0.00  0.00    +0.025 A 
ATOM      6  C   UNL     1      58.897 -17.983 -12.230  0.00  0.00    -0.006 A 
ATOM      7  C   UNL     1      57.511 -18.052 -12.027  0.00  0.00    +0.162 A 
ATOM      8  C   UNL     1      61.178 -17.891 -11.076  0.00  0.00    +0.167 C 
ATOM      9  O   UNL     1      61.872 -17.923 -12.076  0.00  0.00    -0.292 OA
ATOM     10  C   UNL     1      61.625 -17.694  -9.632  0.00  0.00    +0.026 C 
ATOM     11  C   UNL     1      60.359 -18.079  -8.819  0.00  0.00    -0.017 C 
BRANCH   2  13
ATOM     12  C   UNL     1      54.961 -17.022 -10.091  0.00  0.00    +0.079 C 
ATOM     13  O   UNL     1      55.699 -18.217 -10.295  0.00  0.00    -0.491 OA
ENDBRANCH   2  13
BRANCH   7  14
ATOM     14  O   UNL     1      56.616 -18.078 -13.064  0.00  0.00    -0.491 OA
ATOM     15  C   UNL     1      56.308 -16.850 -13.716  0.00  0.00    +0.079 C 
ENDBRANCH   7  14
ENDBRANCH   1  10
BRANCH   1  16
ATOM     16  C   UNL     1      62.518 -20.008  -8.889  0.00  0.00    -0.038 C 
ATOM     17  C   UNL     1      63.571 -20.665  -7.993  0.00  0.00    -0.037 C 
ATOM     18  C   UNL     1      63.344 -22.171  -7.848  0.00  0.00    -0.001 C 
ATOM     19  N   UNL     1      63.140 -22.897  -9.110  0.00  0.00    -0.298 N 
ATOM     20  C   UNL     1      63.237 -22.039 -10.293  0.00  0.00    -0.001 C 
ATOM     21  C   UNL     1      62.303 -20.831 -10.176  0.00  0.00    -0.037 C 
ATOM     22  H   UNL     1      62.178 -23.238  -9.100  0.00  0.00    +0.000 HD
BRANCH  19  23
ATOM     23  C   UNL     1      64.032 -24.065  -9.197  0.00  0.00    +0.024 C 
BRANCH  23  24
ATOM     24  C   UNL     1      63.841 -25.061  -8.074  0.00  0.00    -0.033 A 
ATOM     25  C   UNL     1      64.938 -25.480  -7.306  0.00  0.00    -0.057 A 
ATOM     26  C   UNL     1      64.771 -26.410  -6.279  0.00  0.00    -0.061 A 
ATOM     27  C   UNL     1      63.506 -26.927  -6.006  0.00  0.00    -0.062 A 
ATOM     28  C   UNL     1      62.407 -26.513  -6.757  0.00  0.00    -0.061 A 
ATOM     29  C   UNL     1      62.573 -25.586  -7.788  0.00  0.00    -0.057 A 
ENDBRANCH  23  24
ENDBRANCH  19  23
ENDBRANCH   1  16
TORSDOF 6
ENDMDL
MODEL 19
REMARK VINA RESULT:    -6.653     30.491     34.767
REMARK INTER + INTRA:          -9.624
REMARK INTER:                  -8.847
REMARK INTRA:                  -0.777
REMARK UNBOUND:                -0.637
REMARK  Name = cpd63.pdb
REMARK  8 active torsions:
REMARK  status: ('A' for Active; 'I' for Inactive)
REMARK    1  A    between atoms: C_1  and  O_2
REMARK    2  A    between atoms: O_2  and  C_3
REMARK    3  A    between atoms: C_8  and  O_9
REMARK    4  A    between atoms: O_9  and  C_10
REMARK    5  A    between atoms: C_13  and  C_14
REMARK    6  A    between atoms: C_14  and  C_15
REMARK    7  A    between atoms: N_18  and  C_19
REMARK    8  A    between atoms: C_19  and  C_20
REMARK                            x       y       z     vdW  Elec       q    Type
REMARK                         _______ _______ _______ _____ _____    ______ ____
ROOT
ATOM      1  C   UNL     1      63.280 -19.742  -9.449  0.00  0.00    -0.040 C 
ENDROOT
BRANCH   1  10
ATOM      2  C   UNL     1      64.011 -24.337  -5.608  0.00  0.00    +0.162 A 
ATOM      3  C   UNL     1      63.678 -22.969  -5.672  0.00  0.00    -0.012 A 
ATOM      4  C   UNL     1      63.437 -22.381  -6.901  0.00  0.00    -0.033 A 
ATOM      5  C   UNL     1      63.555 -23.143  -8.047  0.00  0.00    +0.025 A 
ATOM      6  C   UNL     1      63.895 -24.485  -8.035  0.00  0.00    -0.006 A 
ATOM      7  C   UNL     1      64.122 -25.103  -6.797  0.00  0.00    +0.162 A 
ATOM      8  C   UNL     1      63.252 -22.296  -9.193  0.00  0.00    +0.167 C 
ATOM      9  O   UNL     1      63.378 -22.674 -10.344  0.00  0.00    -0.292 OA
ATOM     10  C   UNL     1      62.717 -20.957  -8.700  0.00  0.00    +0.026 C 
ATOM     11  C   UNL     1      63.115 -20.953  -7.199  0.00  0.00    -0.017 C 
BRANCH   2  13
ATOM     12  C   UNL     1      65.071 -23.988  -3.478  0.00  0.00    +0.079 C 
ATOM     13  O   UNL     1      64.208 -24.746  -4.312  0.00  0.00    -0.491 OA
ENDBRANCH   2  13
BRANCH   7  14
ATOM     14  O   UNL     1      64.479 -26.422  -6.688  0.00  0.00    -0.491 OA
ATOM     15  C   UNL     1      63.442 -27.386  -6.541  0.00  0.00    +0.079 C 
ENDBRANCH   7  14
ENDBRANCH   1  10
BRANCH   1  16
ATOM     16  C   UNL     1      62.387 -19.236 -10.607  0.00  0.00    -0.038 C 
ATOM     17  C   UNL     1      62.203 -17.717 -10.607  0.00  0.00    -0.037 C 
ATOM     18  C   UNL     1      61.148 -17.266 -11.619  0.00  0.00    -0.001 C 
ATOM     19  N   UNL     1      59.871 -17.994 -11.559  0.00  0.00    -0.298 N 
ATOM     20  C   UNL     1      59.830 -19.000 -10.495  0.00  0.00    -0.001 C 
ATOM     21  C   UNL     1      61.022 -19.955 -10.593  0.00  0.00    -0.037 C 
ATOM     22  H   UNL     1      59.790 -18.516 -12.431  0.00  0.00    +0.000 HD
BRANCH  19  23
ATOM     23  C   UNL     1      58.735 -17.060 -11.483  0.00  0.00    +0.024 C 
BRANCH  23  24
ATOM     24  C   UNL     1      57.446 -17.626 -12.038  0.00  0.00    -0.033 A 
ATOM     25  C   UNL     1      57.469 -18.467 -13.162  0.00  0.00    -0.057 A 
ATOM     26  C   UNL     1      56.283 -18.981 -13.688  0.00  0.00    -0.061 A 
ATOM     27  C   UNL     1      55.063 -18.664 -13.094  0.00  0.00    -0.062 A 
ATOM     28  C   UNL     1      55.027 -17.836 -11.973  0.00  0.00    -0.061 A 
ATOM     29  C   UNL     1      56.213 -17.318 -11.447  0.00  0.00    -0.057 A 
ENDBRANCH  23  24
ENDBRANCH  19  23
ENDBRANCH   1  16
TORSDOF 6
ENDMDL
MODEL 20
REMARK VINA RESULT:    -6.643      6.811     11.745
REMARK INTER + INTRA:          -9.611
REMARK INTER:                  -8.982
REMARK INTRA:                  -0.629
REMARK UNBOUND:                -0.637
REMARK  Name = cpd63.pdb
REMARK  8 active torsions:
REMARK  status: ('A' for Active; 'I' for Inactive)
REMARK    1  A    between atoms: C_1  and  O_2
REMARK    2  A    between atoms: O_2  and  C_3
REMARK    3  A    between atoms: C_8  and  O_9
REMARK    4  A    between atoms: O_9  and  C_10
REMARK    5  A    between atoms: C_13  and  C_14
REMARK    6  A    between atoms: C_14  and  C_15
REMARK    7  A    between atoms: N_18  and  C_19
REMARK    8  A    between atoms: C_19  and  C_20
REMARK                            x       y       z     vdW  Elec       q    Type
REMARK                         _______ _______ _______ _____ _____    ______ ____
ROOT
ATOM      1  C   UNL     1      32.065 -34.041 -30.283  0.00  0.00    -0.040 C 
ENDROOT
BRANCH   1  10
ATOM      2  C   UNL     1      28.087 -30.212 -27.849  0.00  0.00    +0.162 A 
ATOM      3  C   UNL     1      28.524 -31.553 -27.813  0.00  0.00    -0.012 A 
ATOM      4  C   UNL     1      29.687 -31.910 -28.469  0.00  0.00    -0.033 A 
ATOM      5  C   UNL     1      30.387 -30.949 -29.173  0.00  0.00    +0.025 A 
ATOM      6  C   UNL     1      29.990 -29.625 -29.251  0.00  0.00    -0.006 A 
ATOM      7  C   UNL     1      28.824 -29.240 -28.574  0.00  0.00    +0.162 A 
ATOM      8  C   UNL     1      31.560 -31.578 -29.765  0.00  0.00    +0.167 C 
ATOM      9  O   UNL     1      32.308 -30.994 -30.528  0.00  0.00    -0.292 OA
ATOM     10  C   UNL     1      31.697 -32.996 -29.222  0.00  0.00    +0.026 C 
ATOM     11  C   UNL     1      30.303 -33.266 -28.595  0.00  0.00    -0.017 C 
BRANCH   2  13
ATOM     12  C   UNL     1      25.685 -30.119 -27.829  0.00  0.00    +0.079 C 
ATOM     13  O   UNL     1      26.924 -30.044 -27.140  0.00  0.00    -0.491 OA
ENDBRANCH   2  13
BRANCH   7  14
ATOM     14  O   UNL     1      28.345 -27.956 -28.606  0.00  0.00    -0.491 OA
ATOM     15  C   UNL     1      28.285 -27.295 -29.866  0.00  0.00    +0.079 C 
ENDBRANCH   7  14
ENDBRANCH   1  10
BRANCH   1  16
ATOM     16  C   UNL     1      33.579 -34.342 -30.384  0.00  0.00    -0.038 C 
ATOM     17  C   UNL     1      33.915 -35.395 -31.443  0.00  0.00    -0.037 C 
ATOM     18  C   UNL     1      35.379 -35.834 -31.374  0.00  0.00    -0.001 C 
ATOM     19  N   UNL     1      35.859 -36.202 -30.034  0.00  0.00    -0.298 N 
ATOM     20  C   UNL     1      34.819 -36.123 -29.006  0.00  0.00    -0.001 C 
ATOM     21  C   UNL     1      34.145 -34.749 -29.007  0.00  0.00    -0.037 C 
ATOM     22  H   UNL     1      36.555 -35.506 -29.770  0.00  0.00    +0.000 HD
BRANCH  19  23
ATOM     23  C   UNL     1      36.520 -37.518 -30.054  0.00  0.00    +0.024 C 
BRANCH  23  24
ATOM     24  C   UNL     1      38.028 -37.441 -29.961  0.00  0.00    -0.033 A 
ATOM     25  C   UNL     1      38.708 -38.112 -28.932  0.00  0.00    -0.057 A 
ATOM     26  C   UNL     1      40.098 -38.033 -28.831  0.00  0.00    -0.061 A 
ATOM     27  C   UNL     1      40.822 -37.286 -29.758  0.00  0.00    -0.062 A 
ATOM     28  C   UNL     1      40.160 -36.621 -30.788  0.00  0.00    -0.061 A 
ATOM     29  C   UNL     1      38.769 -36.697 -30.889  0.00  0.00    -0.057 A 
ENDBRANCH  23  24
ENDBRANCH  19  23
ENDBRANCH   1  16
TORSDOF 6
ENDMDL
