REMARK  Name = cpd63.pdb
REMARK  8 active torsions:
REMARK  status: ('A' for Active; 'I' for Inactive)
REMARK    1  A    between atoms: C_1  and  O_2
REMARK    2  A    between atoms: O_2  and  C_3
REMARK    3  A    between atoms: C_8  and  O_9
REMARK    4  A    between atoms: O_9  and  C_10
REMARK    5  A    between atoms: C_13  and  C_14
REMARK    6  A    between atoms: C_14  and  C_15
REMARK    7  A    between atoms: N_18  and  C_19
REMARK    8  A    between atoms: C_19  and  C_20
REMARK                            x       y       z     vdW  Elec       q    Type
REMARK                         _______ _______ _______ _____ _____    ______ ____
ROOT
ATOM      1  C   UNL     1      -1.650  -0.018   0.214  0.00  0.00    -0.040 C 
ENDROOT
BRANCH   1  10
ATOM      2  C   UNL     1       4.147  -1.671  -0.053  0.00  0.00    +0.162 A 
ATOM      3  C   UNL     1       3.290  -0.647   0.400  0.00  0.00    -0.012 A 
ATOM      4  C   UNL     1       1.922  -0.849   0.397  0.00  0.00    -0.033 A 
ATOM      5  C   UNL     1       1.418  -2.045  -0.077  0.00  0.00    +0.025 A 
ATOM      6  C   UNL     1       2.218  -3.073  -0.546  0.00  0.00    -0.006 A 
ATOM      7  C   UNL     1       3.609  -2.894  -0.531  0.00  0.00    +0.162 A 
ATOM      8  C   UNL     1      -0.034  -2.004   0.028  0.00  0.00    +0.167 C 
ATOM      9  O   UNL     1      -0.752  -2.883  -0.413  0.00  0.00    -0.292 OA
ATOM     10  C   UNL     1      -0.446  -0.761   0.808  0.00  0.00    +0.026 C 
ATOM     11  C   UNL     1       0.842   0.106   0.789  0.00  0.00    -0.017 C 
BRANCH   2  13
ATOM     12  C   UNL     1       6.470  -2.282  -0.150  0.00  0.00    +0.079 C 
ATOM     13  O   UNL     1       5.465  -1.296   0.028  0.00  0.00    -0.491 OA
ENDBRANCH   2  13
BRANCH   7  14
ATOM     14  O   UNL     1       4.478  -3.849  -0.990  0.00  0.00    -0.491 OA
ATOM     15  C   UNL     1       3.957  -5.138  -1.296  0.00  0.00    +0.079 C 
ENDBRANCH   7  14
ENDBRANCH   1  10
BRANCH   1  16
ATOM     16  C   UNL     1      -3.007  -0.381   0.862  0.00  0.00    -0.038 C 
ATOM     17  C   UNL     1      -3.395  -1.848   0.666  0.00  0.00    -0.037 C 
ATOM     18  C   UNL     1      -4.829  -2.129   1.119  0.00  0.00    -0.001 C 
ATOM     19  N   UNL     1      -5.843  -1.199   0.600  0.00  0.00    -0.298 N 
ATOM     20  C   UNL     1      -5.290  -0.188  -0.304  0.00  0.00    -0.001 C 
ATOM     21  C   UNL     1      -4.121   0.555   0.348  0.00  0.00    -0.037 C 
ATOM     22  H   UNL     1      -6.202  -0.680   1.401  0.00  0.00    +0.000 HD
BRANCH  19  23
ATOM     23  C   UNL     1      -6.968  -1.930  -0.007  0.00  0.00    +0.024 C 
BRANCH  23  24
ATOM     24  C   UNL     1      -8.197  -1.076  -0.230  0.00  0.00    -0.033 A 
ATOM     25  C   UNL     1      -8.907  -0.559   0.865  0.00  0.00    -0.057 A 
ATOM     26  C   UNL     1     -10.050   0.217   0.667  0.00  0.00    -0.061 A 
ATOM     27  C   UNL     1     -10.493   0.487  -0.626  0.00  0.00    -0.062 A 
ATOM     28  C   UNL     1      -9.793  -0.015  -1.722  0.00  0.00    -0.061 A 
ATOM     29  C   UNL     1      -8.651  -0.794  -1.526  0.00  0.00    -0.057 A 
ENDBRANCH  23  24
ENDBRANCH  19  23
ENDBRANCH   1  16
TORSDOF 6
