REMARK  Name = cpd355.pdb
REMARK  5 active torsions:
REMARK  status: ('A' for Active; 'I' for Inactive)
REMARK    1  A    between atoms: C_1  and  C_2
REMARK    2  A    between atoms: C_6  and  C_7
REMARK    3  A    between atoms: C_7  and  N_8
REMARK    4  A    between atoms: C_12  and  C_13
REMARK    5  A    between atoms: C_13  and  N_14
REMARK                            x       y       z     vdW  Elec       q    Type
REMARK                         _______ _______ _______ _____ _____    ______ ____
ROOT
ATOM      1  N   UNL A   1       2.867   0.078  -0.056  0.00  0.00    -0.349 N 
ATOM      2  C   UNL A   1       3.076  -0.511   1.146  0.00  0.00    +0.005 A 
ATOM      3  C   UNL A   1       2.277  -1.565   1.564  0.00  0.00    -0.045 A 
ATOM      4  C   UNL A   1       1.239  -1.997   0.749  0.00  0.00    -0.054 A 
ATOM      5  C   UNL A   1       1.003  -1.368  -0.476  0.00  0.00    -0.012 A 
ATOM      6  C   UNL A   1       1.856  -0.332  -0.860  0.00  0.00    +0.010 A 
ENDROOT
BRANCH   1   7
ATOM      7  C   UNL A   1       3.713   1.230  -0.469  0.00  0.00    +0.048 C 
BRANCH   7  13
ATOM      8  C   UNL A   1       8.398   2.310   1.042  0.00  0.00    -0.040 C 
ATOM      9  C   UNL A   1       7.444   1.415   0.304  0.00  0.00    -0.050 A 
ATOM     10  C   UNL A   1       7.924   0.312  -0.410  0.00  0.00    -0.059 A 
ATOM     11  C   UNL A   1       7.049  -0.493  -1.138  0.00  0.00    -0.061 A 
ATOM     12  C   UNL A   1       5.685  -0.203  -1.164  0.00  0.00    -0.057 A 
ATOM     13  C   UNL A   1       5.182   0.896  -0.452  0.00  0.00    -0.028 A 
ATOM     14  C   UNL A   1       6.076   1.710   0.265  0.00  0.00    -0.054 A 
ENDBRANCH   7  13
ENDBRANCH   1   7
BRANCH   5  15
ATOM     15  C   UNL A   1      -0.150  -1.778  -1.367  0.00  0.00    +0.050 C 
BRANCH  15  16
ATOM     16  N   UNL A   1      -1.434  -1.613  -0.693  0.00  0.00    -0.339 N 
ATOM     17  C   UNL A   1      -2.110  -0.425  -0.543  0.00  0.00    +0.023 A 
ATOM     18  C   UNL A   1      -3.263  -0.678   0.176  0.00  0.00    -0.019 A 
ATOM     19  C   UNL A   1      -3.304  -2.069   0.457  0.00  0.00    +0.003 A 
ATOM     20  C   UNL A   1      -4.219  -2.898   1.137  0.00  0.00    -0.052 A 
ATOM     21  C   UNL A   1      -3.978  -4.271   1.224  0.00  0.00    -0.061 A 
ATOM     22  C   UNL A   1      -2.843  -4.826   0.644  0.00  0.00    -0.060 A 
ATOM     23  C   UNL A   1      -1.917  -4.026  -0.033  0.00  0.00    -0.038 A 
ATOM     24  C   UNL A   1      -2.161  -2.642  -0.113  0.00  0.00    +0.050 A 
ATOM     25  C   UNL A   1      -4.241   0.388   0.548  0.00  0.00    -0.025 C 
ATOM     26  C   UNL A   1      -4.032   1.655  -0.299  0.00  0.00    -0.049 C 
ATOM     27  C   UNL A   1      -2.544   2.022  -0.421  0.00  0.00    -0.047 C 
ATOM     28  C   UNL A   1      -1.724   0.907  -1.095  0.00  0.00    -0.012 C 
ENDBRANCH  15  16
ENDBRANCH   5  15
TORSDOF 4
