@<TRIPOS>MOLECULE
*****
 28 32 0 0 0
SMALL
GASTEIGER

@<TRIPOS>ATOM
      1 C           4.9895    2.5541    0.0000 C.3     1  UNL1        0.0310
      2 C           4.6900    1.6324    0.0000 C.ar    1  UNL1       -0.0219
      3 C           5.3385    0.9122    0.0000 C.ar    1  UNL1       -0.0043
      4 C           5.0390   -0.0095    0.0000 C.ar    1  UNL1       -0.0004
      5 C           4.0911   -0.2110    0.0000 C.ar    1  UNL1        0.0024
      6 C           3.4426    0.5092    0.0000 C.ar    1  UNL1        0.0552
      7 C           2.4947    0.3077    0.0000 C.3     1  UNL1        0.3501
      8 N           2.1952   -0.6140    0.0000 N.ar    1  UNL1       -0.1557
      9 C           2.8436   -1.3342    0.0000 C.ar    1  UNL1        0.2904
     10 C           2.5442   -2.2559    0.0000 C.ar    1  UNL1        0.0756
     11 C           1.5962   -2.4574    0.0000 C.ar    1  UNL1        0.0100
     12 C           0.9477   -1.7372    0.0000 C.ar    1  UNL1        0.0703
     13 C          -0.0002   -1.9387    0.0000 C.3     1  UNL1        0.1385
     14 N          -0.8395   -1.4541    0.0000 N.ar    1  UNL1       -0.3266
     15 C          -0.8396   -0.4850    0.0000 C.ar    1  UNL1        0.0334
     16 C          -1.6794   -0.0001    0.0000 C.ar    1  UNL1       -0.0091
     17 C          -2.5189   -1.4542    0.0000 C.ar    1  UNL1        0.0129
     18 C          -3.3585   -1.9391    0.0000 C.ar    1  UNL1        0.0012
     19 C          -3.3584   -2.9083    0.0000 C.ar    1  UNL1        0.0001
     20 C          -2.5186   -3.3931    0.0000 C.ar    1  UNL1        0.0015
     21 C          -1.6793   -2.9086    0.0000 C.ar    1  UNL1        0.0172
     22 C          -1.6791   -1.9390    0.0000 C.ar    1  UNL1        0.0596
     23 C          -1.6792    0.9695    0.0000 C.3     1  UNL1        0.0275
     24 C          -0.8399    1.4540    0.0000 C.3     1  UNL1        0.0051
     25 C          -0.0001    0.9691    0.0000 C.3     1  UNL1        0.0066
     26 C           0.0000   -0.0000    0.0000 C.3     1  UNL1        0.0435
     27 C           1.1634   -0.7224    0.0000 C.ar    1  UNL1        0.2878
     28 C           3.6583    1.5240    0.0000 C.ar    1  UNL1       -0.0018
@<TRIPOS>UNITY_ATOM_ATTR
8 1
charge 1
@<TRIPOS>BOND
     1     1     2    1
     2     2     3   ar
     3     3     4   ar
     4     4     5   ar
     5     5     6   ar
     6     6     7    1
     7     7     8    1
     8     8     9   ar
     9     9    10   ar
    10    10    11   ar
    11    11    12   ar
    12    12    13    1
    13    13    14    1
    14    14    15   ar
    15    15    16   ar
    16    16    17   ar
    17    17    18   ar
    18    18    19   ar
    19    19    20   ar
    20    20    21   ar
    21    21    22   ar
    22    17    22   ar
    23    14    22   ar
    24    16    23    1
    25    23    24    1
    26    24    25    1
    27    25    26    1
    28    15    26    1
    29    12    27   ar
    30     8    27   ar
    31     6    28   ar
    32     2    28   ar
