MODEL 1
REMARK VINA RESULT:    -8.524      0.000      0.000
REMARK INTER + INTRA:         -12.649
REMARK INTER:                 -10.517
REMARK INTRA:                  -2.132
REMARK UNBOUND:                -2.132
REMARK  Name = cpd355.pdb
REMARK  5 active torsions:
REMARK  status: ('A' for Active; 'I' for Inactive)
REMARK    1  A    between atoms: C_1  and  C_2
REMARK    2  A    between atoms: C_6  and  C_7
REMARK    3  A    between atoms: C_7  and  N_8
REMARK    4  A    between atoms: C_12  and  C_13
REMARK    5  A    between atoms: C_13  and  N_14
REMARK                            x       y       z     vdW  Elec       q    Type
REMARK                         _______ _______ _______ _____ _____    ______ ____
ROOT
ATOM      1  N   UNL A   1      33.218 -37.546 -32.544  0.00  0.00    -0.349 N 
ATOM      2  C   UNL A   1      32.038 -36.972 -32.881  0.00  0.00    +0.005 A 
ATOM      3  C   UNL A   1      31.853 -35.604 -32.740  0.00  0.00    -0.045 A 
ATOM      4  C   UNL A   1      32.882 -34.828 -32.223  0.00  0.00    -0.054 A 
ATOM      5  C   UNL A   1      34.087 -35.425 -31.846  0.00  0.00    -0.012 A 
ATOM      6  C   UNL A   1      34.230 -36.800 -32.037  0.00  0.00    +0.010 A 
ENDROOT
BRANCH   1   7
ATOM      7  C   UNL A   1      33.383 -39.019 -32.670  0.00  0.00    +0.048 C 
BRANCH   7  13
ATOM      8  C   UNL A   1      33.288 -40.383 -27.819  0.00  0.00    -0.040 C 
ATOM      9  C   UNL A   1      34.013 -40.299 -29.132  0.00  0.00    -0.050 A 
ATOM     10  C   UNL A   1      35.342 -40.724 -29.230  0.00  0.00    -0.059 A 
ATOM     11  C   UNL A   1      36.035 -40.602 -30.433  0.00  0.00    -0.061 A 
ATOM     12  C   UNL A   1      35.410 -40.050 -31.551  0.00  0.00    -0.057 A 
ATOM     13  C   UNL A   1      34.077 -39.621 -31.476  0.00  0.00    -0.028 A 
ATOM     14  C   UNL A   1      33.393 -39.734 -30.253  0.00  0.00    -0.054 A 
ENDBRANCH   7  13
ENDBRANCH   1   7
BRANCH   5  15
ATOM     15  C   UNL A   1      35.212 -34.619 -31.232  0.00  0.00    +0.050 C 
BRANCH  15  16
ATOM     16  N   UNL A   1      36.173 -35.475 -30.545  0.00  0.00    -0.339 N 
ATOM     17  C   UNL A   1      37.462 -35.721 -30.958  0.00  0.00    +0.023 A 
ATOM     18  C   UNL A   1      38.036 -36.604 -30.063  0.00  0.00    -0.019 A 
ATOM     19  C   UNL A   1      37.075 -36.891 -29.058  0.00  0.00    +0.003 A 
ATOM     20  C   UNL A   1      37.085 -37.701 -27.905  0.00  0.00    -0.052 A 
ATOM     21  C   UNL A   1      35.955 -37.755 -27.085  0.00  0.00    -0.061 A 
ATOM     22  C   UNL A   1      34.821 -37.014 -27.399  0.00  0.00    -0.060 A 
ATOM     23  C   UNL A   1      34.783 -36.205 -28.539  0.00  0.00    -0.038 A 
ATOM     24  C   UNL A   1      35.922 -36.159 -29.365  0.00  0.00    +0.050 A 
ATOM     25  C   UNL A   1      39.433 -37.114 -30.205  0.00  0.00    -0.025 C 
ATOM     26  C   UNL A   1      40.248 -36.242 -31.176  0.00  0.00    -0.049 C 
ATOM     27  C   UNL A   1      39.449 -35.900 -32.444  0.00  0.00    -0.047 C 
ATOM     28  C   UNL A   1      38.164 -35.115 -32.128  0.00  0.00    -0.012 C 
ENDBRANCH  15  16
ENDBRANCH   5  15
TORSDOF 4
ENDMDL
MODEL 2
REMARK VINA RESULT:    -7.780      2.227      4.690
REMARK INTER + INTRA:         -11.731
REMARK INTER:                 -10.351
REMARK INTRA:                  -1.380
REMARK UNBOUND:                -2.132
REMARK  Name = cpd355.pdb
REMARK  5 active torsions:
REMARK  status: ('A' for Active; 'I' for Inactive)
REMARK    1  A    between atoms: C_1  and  C_2
REMARK    2  A    between atoms: C_6  and  C_7
REMARK    3  A    between atoms: C_7  and  N_8
REMARK    4  A    between atoms: C_12  and  C_13
REMARK    5  A    between atoms: C_13  and  N_14
REMARK                            x       y       z     vdW  Elec       q    Type
REMARK                         _______ _______ _______ _____ _____    ______ ____
ROOT
ATOM      1  N   UNL A   1      32.982 -34.966 -29.258  0.00  0.00    -0.349 N 
ATOM      2  C   UNL A   1      33.278 -33.663 -29.031  0.00  0.00    +0.005 A 
ATOM      3  C   UNL A   1      34.331 -33.052 -29.696  0.00  0.00    -0.045 A 
ATOM      4  C   UNL A   1      35.100 -33.796 -30.581  0.00  0.00    -0.054 A 
ATOM      5  C   UNL A   1      34.814 -35.148 -30.791  0.00  0.00    -0.012 A 
ATOM      6  C   UNL A   1      33.726 -35.704 -30.118  0.00  0.00    +0.010 A 
ENDROOT
BRANCH   1   7
ATOM      7  C   UNL A   1      31.871 -35.611 -28.507  0.00  0.00    +0.048 C 
BRANCH   7  13
ATOM      8  C   UNL A   1      32.775 -35.558 -23.550  0.00  0.00    -0.040 C 
ATOM      9  C   UNL A   1      32.766 -36.289 -24.862  0.00  0.00    -0.050 A 
ATOM     10  C   UNL A   1      33.256 -37.596 -24.941  0.00  0.00    -0.059 A 
ATOM     11  C   UNL A   1      33.297 -38.262 -26.166  0.00  0.00    -0.061 A 
ATOM     12  C   UNL A   1      32.852 -37.627 -27.325  0.00  0.00    -0.057 A 
ATOM     13  C   UNL A   1      32.353 -36.317 -27.267  0.00  0.00    -0.028 A 
ATOM     14  C   UNL A   1      32.332 -35.650 -26.030  0.00  0.00    -0.054 A 
ENDBRANCH   7  13
ENDBRANCH   1   7
BRANCH   5  15
ATOM     15  C   UNL A   1      35.662 -36.002 -31.710  0.00  0.00    +0.050 C 
BRANCH  15  16
ATOM     16  N   UNL A   1      36.886 -36.447 -31.051  0.00  0.00    -0.339 N 
ATOM     17  C   UNL A   1      36.971 -37.462 -30.127  0.00  0.00    +0.023 A 
ATOM     18  C   UNL A   1      38.288 -37.555 -29.716  0.00  0.00    -0.019 A 
ATOM     19  C   UNL A   1      39.035 -36.580 -30.427  0.00  0.00    +0.003 A 
ATOM     20  C   UNL A   1      40.396 -36.213 -30.436  0.00  0.00    -0.052 A 
ATOM     21  C   UNL A   1      40.835 -35.198 -31.289  0.00  0.00    -0.061 A 
ATOM     22  C   UNL A   1      39.939 -34.548 -32.131  0.00  0.00    -0.060 A 
ATOM     23  C   UNL A   1      38.583 -34.890 -32.140  0.00  0.00    -0.038 A 
ATOM     24  C   UNL A   1      38.145 -35.909 -31.274  0.00  0.00    +0.050 A 
ATOM     25  C   UNL A   1      38.755 -38.542 -28.697  0.00  0.00    -0.025 C 
ATOM     26  C   UNL A   1      37.724 -39.667 -28.498  0.00  0.00    -0.049 C 
ATOM     27  C   UNL A   1      36.291 -39.117 -28.398  0.00  0.00    -0.047 C 
ATOM     28  C   UNL A   1      35.870 -38.360 -29.671  0.00  0.00    -0.012 C 
ENDBRANCH  15  16
ENDBRANCH   5  15
TORSDOF 4
ENDMDL
MODEL 3
REMARK VINA RESULT:    -7.588      1.407      4.274
REMARK INTER + INTRA:         -11.494
REMARK INTER:                  -9.408
REMARK INTRA:                  -2.085
REMARK UNBOUND:                -2.132
REMARK  Name = cpd355.pdb
REMARK  5 active torsions:
REMARK  status: ('A' for Active; 'I' for Inactive)
REMARK    1  A    between atoms: C_1  and  C_2
REMARK    2  A    between atoms: C_6  and  C_7
REMARK    3  A    between atoms: C_7  and  N_8
REMARK    4  A    between atoms: C_12  and  C_13
REMARK    5  A    between atoms: C_13  and  N_14
REMARK                            x       y       z     vdW  Elec       q    Type
REMARK                         _______ _______ _______ _____ _____    ______ ____
ROOT
ATOM      1  N   UNL A   1      33.712 -39.334 -30.786  0.00  0.00    -0.349 N 
ATOM      2  C   UNL A   1      34.134 -40.621 -30.766  0.00  0.00    +0.005 A 
ATOM      3  C   UNL A   1      35.250 -40.986 -30.028  0.00  0.00    -0.045 A 
ATOM      4  C   UNL A   1      35.951 -40.013 -29.327  0.00  0.00    -0.054 A 
ATOM      5  C   UNL A   1      35.534 -38.680 -29.375  0.00  0.00    -0.012 A 
ATOM      6  C   UNL A   1      34.387 -38.374 -30.109  0.00  0.00    +0.010 A 
ENDROOT
BRANCH   1   7
ATOM      7  C   UNL A   1      32.533 -38.958 -31.613  0.00  0.00    +0.048 C 
BRANCH   7  13
ATOM      8  C   UNL A   1      30.622 -34.297 -31.468  0.00  0.00    -0.040 C 
ATOM      9  C   UNL A   1      31.662 -35.260 -31.963  0.00  0.00    -0.050 A 
ATOM     10  C   UNL A   1      32.635 -34.838 -32.876  0.00  0.00    -0.059 A 
ATOM     11  C   UNL A   1      33.572 -35.740 -33.377  0.00  0.00    -0.061 A 
ATOM     12  C   UNL A   1      33.546 -37.075 -32.975  0.00  0.00    -0.057 A 
ATOM     13  C   UNL A   1      32.582 -37.519 -32.058  0.00  0.00    -0.028 A 
ATOM     14  C   UNL A   1      31.632 -36.604 -31.572  0.00  0.00    -0.054 A 
ENDBRANCH   7  13
ENDBRANCH   1   7
BRANCH   5  15
ATOM     15  C   UNL A   1      36.302 -37.585 -28.666  0.00  0.00    +0.050 C 
BRANCH  15  16
ATOM     16  N   UNL A   1      36.493 -36.421 -29.525  0.00  0.00    -0.339 N 
ATOM     17  C   UNL A   1      37.559 -36.218 -30.369  0.00  0.00    +0.023 A 
ATOM     18  C   UNL A   1      37.391 -34.990 -30.981  0.00  0.00    -0.019 A 
ATOM     19  C   UNL A   1      36.172 -34.433 -30.511  0.00  0.00    +0.003 A 
ATOM     20  C   UNL A   1      35.486 -33.230 -30.776  0.00  0.00    -0.052 A 
ATOM     21  C   UNL A   1      34.261 -32.980 -30.152  0.00  0.00    -0.061 A 
ATOM     22  C   UNL A   1      33.715 -33.908 -29.273  0.00  0.00    -0.060 A 
ATOM     23  C   UNL A   1      34.377 -35.106 -28.989  0.00  0.00    -0.038 A 
ATOM     24  C   UNL A   1      35.613 -35.352 -29.616  0.00  0.00    +0.050 A 
ATOM     25  C   UNL A   1      38.371 -34.425 -31.956  0.00  0.00    -0.025 C 
ATOM     26  C   UNL A   1      39.315 -35.515 -32.491  0.00  0.00    -0.049 C 
ATOM     27  C   UNL A   1      39.829 -36.429 -31.366  0.00  0.00    -0.047 C 
ATOM     28  C   UNL A   1      38.683 -37.160 -30.643  0.00  0.00    -0.012 C 
ENDBRANCH  15  16
ENDBRANCH   5  15
TORSDOF 4
ENDMDL
MODEL 4
REMARK VINA RESULT:    -7.548      1.674      6.110
REMARK INTER + INTRA:         -11.445
REMARK INTER:                 -10.410
REMARK INTRA:                  -1.035
REMARK UNBOUND:                -2.132
REMARK  Name = cpd355.pdb
REMARK  5 active torsions:
REMARK  status: ('A' for Active; 'I' for Inactive)
REMARK    1  A    between atoms: C_1  and  C_2
REMARK    2  A    between atoms: C_6  and  C_7
REMARK    3  A    between atoms: C_7  and  N_8
REMARK    4  A    between atoms: C_12  and  C_13
REMARK    5  A    between atoms: C_13  and  N_14
REMARK                            x       y       z     vdW  Elec       q    Type
REMARK                         _______ _______ _______ _____ _____    ______ ____
ROOT
ATOM      1  N   UNL A   1      37.115 -38.658 -28.738  0.00  0.00    -0.349 N 
ATOM      2  C   UNL A   1      37.024 -40.001 -28.887  0.00  0.00    +0.005 A 
ATOM      3  C   UNL A   1      35.797 -40.602 -29.128  0.00  0.00    -0.045 A 
ATOM      4  C   UNL A   1      34.654 -39.816 -29.189  0.00  0.00    -0.054 A 
ATOM      5  C   UNL A   1      34.744 -38.435 -29.002  0.00  0.00    -0.012 A 
ATOM      6  C   UNL A   1      36.008 -37.879 -28.792  0.00  0.00    +0.010 A 
ENDROOT
BRANCH   1   7
ATOM      7  C   UNL A   1      38.436 -38.038 -28.444  0.00  0.00    +0.048 C 
BRANCH   7  13
ATOM      8  C   UNL A   1      42.509 -37.378 -31.338  0.00  0.00    -0.040 C 
ATOM      9  C   UNL A   1      41.047 -37.149 -31.079  0.00  0.00    -0.050 A 
ATOM     10  C   UNL A   1      40.298 -36.343 -31.943  0.00  0.00    -0.059 A 
ATOM     11  C   UNL A   1      38.953 -36.086 -31.680  0.00  0.00    -0.061 A 
ATOM     12  C   UNL A   1      38.342 -36.629 -30.550  0.00  0.00    -0.057 A 
ATOM     13  C   UNL A   1      39.074 -37.444 -29.673  0.00  0.00    -0.028 A 
ATOM     14  C   UNL A   1      40.433 -37.682 -29.939  0.00  0.00    -0.054 A 
ENDBRANCH   7  13
ENDBRANCH   1   7
BRANCH   5  15
ATOM     15  C   UNL A   1      33.514 -37.553 -29.011  0.00  0.00    +0.050 C 
BRANCH  15  16
ATOM     16  N   UNL A   1      33.483 -36.686 -30.185  0.00  0.00    -0.339 N 
ATOM     17  C   UNL A   1      33.098 -37.068 -31.448  0.00  0.00    +0.023 A 
ATOM     18  C   UNL A   1      33.239 -35.977 -32.285  0.00  0.00    -0.019 A 
ATOM     19  C   UNL A   1      33.705 -34.887 -31.504  0.00  0.00    +0.003 A 
ATOM     20  C   UNL A   1      34.021 -33.545 -31.797  0.00  0.00    -0.052 A 
ATOM     21  C   UNL A   1      34.445 -32.694 -30.774  0.00  0.00    -0.061 A 
ATOM     22  C   UNL A   1      34.557 -33.161 -29.469  0.00  0.00    -0.060 A 
ATOM     23  C   UNL A   1      34.254 -34.489 -29.152  0.00  0.00    -0.038 A 
ATOM     24  C   UNL A   1      33.833 -35.344 -30.187  0.00  0.00    +0.050 A 
ATOM     25  C   UNL A   1      32.929 -36.026 -33.746  0.00  0.00    -0.025 C 
ATOM     26  C   UNL A   1      32.068 -37.253 -34.091  0.00  0.00    -0.049 C 
ATOM     27  C   UNL A   1      32.581 -38.525 -33.398  0.00  0.00    -0.047 C 
ATOM     28  C   UNL A   1      32.564 -38.398 -31.864  0.00  0.00    -0.012 C 
ENDBRANCH  15  16
ENDBRANCH   5  15
TORSDOF 4
ENDMDL
MODEL 5
REMARK VINA RESULT:    -7.543      2.181      5.439
REMARK INTER + INTRA:         -11.438
REMARK INTER:                 -10.504
REMARK INTRA:                  -0.934
REMARK UNBOUND:                -2.132
REMARK  Name = cpd355.pdb
REMARK  5 active torsions:
REMARK  status: ('A' for Active; 'I' for Inactive)
REMARK    1  A    between atoms: C_1  and  C_2
REMARK    2  A    between atoms: C_6  and  C_7
REMARK    3  A    between atoms: C_7  and  N_8
REMARK    4  A    between atoms: C_12  and  C_13
REMARK    5  A    between atoms: C_13  and  N_14
REMARK                            x       y       z     vdW  Elec       q    Type
REMARK                         _______ _______ _______ _____ _____    ______ ____
ROOT
ATOM      1  N   UNL A   1      36.757 -38.965 -28.843  0.00  0.00    -0.349 N 
ATOM      2  C   UNL A   1      36.600 -40.308 -28.770  0.00  0.00    +0.005 A 
ATOM      3  C   UNL A   1      35.537 -40.931 -29.408  0.00  0.00    -0.045 A 
ATOM      4  C   UNL A   1      34.616 -40.160 -30.105  0.00  0.00    -0.054 A 
ATOM      5  C   UNL A   1      34.760 -38.771 -30.153  0.00  0.00    -0.012 A 
ATOM      6  C   UNL A   1      35.864 -38.200 -29.517  0.00  0.00    +0.010 A 
ENDROOT
BRANCH   1   7
ATOM      7  C   UNL A   1      37.883 -38.314 -28.121  0.00  0.00    +0.048 C 
BRANCH   7  13
ATOM      8  C   UNL A   1      39.482 -35.763 -32.163  0.00  0.00    -0.040 C 
ATOM      9  C   UNL A   1      39.772 -36.659 -30.993  0.00  0.00    -0.050 A 
ATOM     10  C   UNL A   1      41.060 -37.168 -30.800  0.00  0.00    -0.059 A 
ATOM     11  C   UNL A   1      41.324 -38.041 -29.745  0.00  0.00    -0.061 A 
ATOM     12  C   UNL A   1      40.302 -38.418 -28.874  0.00  0.00    -0.057 A 
ATOM     13  C   UNL A   1      39.003 -37.917 -29.048  0.00  0.00    -0.028 A 
ATOM     14  C   UNL A   1      38.746 -37.051 -30.125  0.00  0.00    -0.054 A 
ENDBRANCH   7  13
ENDBRANCH   1   7
BRANCH   5  15
ATOM     15  C   UNL A   1      33.747 -37.895 -30.859  0.00  0.00    +0.050 C 
BRANCH  15  16
ATOM     16  N   UNL A   1      33.576 -36.616 -30.176  0.00  0.00    -0.339 N 
ATOM     17  C   UNL A   1      34.321 -35.483 -30.405  0.00  0.00    +0.023 A 
ATOM     18  C   UNL A   1      33.877 -34.499 -29.541  0.00  0.00    -0.019 A 
ATOM     19  C   UNL A   1      32.812 -35.042 -28.774  0.00  0.00    +0.003 A 
ATOM     20  C   UNL A   1      31.980 -34.524 -27.761  0.00  0.00    -0.052 A 
ATOM     21  C   UNL A   1      30.982 -35.327 -27.206  0.00  0.00    -0.061 A 
ATOM     22  C   UNL A   1      30.801 -36.633 -27.647  0.00  0.00    -0.060 A 
ATOM     23  C   UNL A   1      31.614 -37.173 -28.649  0.00  0.00    -0.038 A 
ATOM     24  C   UNL A   1      32.624 -36.362 -29.200  0.00  0.00    +0.050 A 
ATOM     25  C   UNL A   1      34.472 -33.130 -29.492  0.00  0.00    -0.025 C 
ATOM     26  C   UNL A   1      35.301 -32.838 -30.754  0.00  0.00    -0.049 C 
ATOM     27  C   UNL A   1      36.200 -34.025 -31.135  0.00  0.00    -0.047 C 
ATOM     28  C   UNL A   1      35.387 -35.298 -31.433  0.00  0.00    -0.012 C 
ENDBRANCH  15  16
ENDBRANCH   5  15
TORSDOF 4
ENDMDL
MODEL 6
REMARK VINA RESULT:    -7.487      1.429      5.054
REMARK INTER + INTRA:         -11.369
REMARK INTER:                  -9.501
REMARK INTRA:                  -1.868
REMARK UNBOUND:                -2.132
REMARK  Name = cpd355.pdb
REMARK  5 active torsions:
REMARK  status: ('A' for Active; 'I' for Inactive)
REMARK    1  A    between atoms: C_1  and  C_2
REMARK    2  A    between atoms: C_6  and  C_7
REMARK    3  A    between atoms: C_7  and  N_8
REMARK    4  A    between atoms: C_12  and  C_13
REMARK    5  A    between atoms: C_13  and  N_14
REMARK                            x       y       z     vdW  Elec       q    Type
REMARK                         _______ _______ _______ _____ _____    ______ ____
ROOT
ATOM      1  N   UNL A   1      34.321 -39.808 -31.106  0.00  0.00    -0.349 N 
ATOM      2  C   UNL A   1      34.981 -40.990 -31.047  0.00  0.00    +0.005 A 
ATOM      3  C   UNL A   1      36.045 -41.162 -30.174  0.00  0.00    -0.045 A 
ATOM      4  C   UNL A   1      36.447 -40.100 -29.374  0.00  0.00    -0.054 A 
ATOM      5  C   UNL A   1      35.787 -38.872 -29.458  0.00  0.00    -0.012 A 
ATOM      6  C   UNL A   1      34.705 -38.763 -30.333  0.00  0.00    +0.010 A 
ENDROOT
BRANCH   1   7
ATOM      7  C   UNL A   1      33.206 -39.634 -32.075  0.00  0.00    +0.048 C 
BRANCH   7  13
ATOM      8  C   UNL A   1      33.370 -34.770 -33.382  0.00  0.00    -0.040 C 
ATOM      9  C   UNL A   1      32.684 -35.903 -32.674  0.00  0.00    -0.050 A 
ATOM     10  C   UNL A   1      31.530 -35.666 -31.920  0.00  0.00    -0.059 A 
ATOM     11  C   UNL A   1      30.918 -36.705 -31.221  0.00  0.00    -0.061 A 
ATOM     12  C   UNL A   1      31.454 -37.992 -31.264  0.00  0.00    -0.057 A 
ATOM     13  C   UNL A   1      32.608 -38.253 -32.017  0.00  0.00    -0.028 A 
ATOM     14  C   UNL A   1      33.226 -37.194 -32.705  0.00  0.00    -0.054 A 
ENDBRANCH   7  13
ENDBRANCH   1   7
BRANCH   5  15
ATOM     15  C   UNL A   1      36.230 -37.678 -28.639  0.00  0.00    +0.050 C 
BRANCH  15  16
ATOM     16  N   UNL A   1      36.445 -36.503 -29.478  0.00  0.00    -0.339 N 
ATOM     17  C   UNL A   1      35.594 -35.427 -29.577  0.00  0.00    +0.023 A 
ATOM     18  C   UNL A   1      36.131 -34.541 -30.493  0.00  0.00    -0.019 A 
ATOM     19  C   UNL A   1      37.360 -35.083 -30.952  0.00  0.00    +0.003 A 
ATOM     20  C   UNL A   1      38.338 -34.641 -31.866  0.00  0.00    -0.052 A 
ATOM     21  C   UNL A   1      39.479 -35.415 -32.090  0.00  0.00    -0.061 A 
ATOM     22  C   UNL A   1      39.658 -36.618 -31.417  0.00  0.00    -0.060 A 
ATOM     23  C   UNL A   1      38.702 -37.082 -30.508  0.00  0.00    -0.038 A 
ATOM     24  C   UNL A   1      37.551 -36.302 -30.290  0.00  0.00    +0.050 A 
ATOM     25  C   UNL A   1      35.466 -33.259 -30.872  0.00  0.00    -0.025 C 
ATOM     26  C   UNL A   1      34.387 -32.868 -29.848  0.00  0.00    -0.049 C 
ATOM     27  C   UNL A   1      33.513 -34.069 -29.450  0.00  0.00    -0.047 C 
ATOM     28  C   UNL A   1      34.337 -35.198 -28.806  0.00  0.00    -0.012 C 
ENDBRANCH  15  16
ENDBRANCH   5  15
TORSDOF 4
ENDMDL
MODEL 7
REMARK VINA RESULT:    -7.454      2.239      6.268
REMARK INTER + INTRA:         -11.328
REMARK INTER:                 -10.401
REMARK INTRA:                  -0.927
REMARK UNBOUND:                -2.132
REMARK  Name = cpd355.pdb
REMARK  5 active torsions:
REMARK  status: ('A' for Active; 'I' for Inactive)
REMARK    1  A    between atoms: C_1  and  C_2
REMARK    2  A    between atoms: C_6  and  C_7
REMARK    3  A    between atoms: C_7  and  N_8
REMARK    4  A    between atoms: C_12  and  C_13
REMARK    5  A    between atoms: C_13  and  N_14
REMARK                            x       y       z     vdW  Elec       q    Type
REMARK                         _______ _______ _______ _____ _____    ______ ____
ROOT
ATOM      1  N   UNL A   1      36.715 -38.925 -28.840  0.00  0.00    -0.349 N 
ATOM      2  C   UNL A   1      36.619 -40.276 -28.885  0.00  0.00    +0.005 A 
ATOM      3  C   UNL A   1      35.578 -40.887 -29.570  0.00  0.00    -0.045 A 
ATOM      4  C   UNL A   1      34.616 -40.100 -30.189  0.00  0.00    -0.054 A 
ATOM      5  C   UNL A   1      34.697 -38.707 -30.114  0.00  0.00    -0.012 A 
ATOM      6  C   UNL A   1      35.781 -38.145 -29.438  0.00  0.00    +0.010 A 
ENDROOT
BRANCH   1   7
ATOM      7  C   UNL A   1      37.819 -38.290 -28.070  0.00  0.00    +0.048 C 
BRANCH   7  13
ATOM      8  C   UNL A   1      39.841 -35.929 -32.037  0.00  0.00    -0.040 C 
ATOM      9  C   UNL A   1      39.993 -36.825 -30.841  0.00  0.00    -0.050 A 
ATOM     10  C   UNL A   1      41.226 -37.424 -30.564  0.00  0.00    -0.059 A 
ATOM     11  C   UNL A   1      41.360 -38.296 -29.485  0.00  0.00    -0.061 A 
ATOM     12  C   UNL A   1      40.263 -38.584 -28.673  0.00  0.00    -0.057 A 
ATOM     13  C   UNL A   1      39.018 -37.991 -28.932  0.00  0.00    -0.028 A 
ATOM     14  C   UNL A   1      38.891 -37.126 -30.032  0.00  0.00    -0.054 A 
ENDBRANCH   7  13
ENDBRANCH   1   7
BRANCH   5  15
ATOM     15  C   UNL A   1      33.640 -37.818 -30.733  0.00  0.00    +0.050 C 
BRANCH  15  16
ATOM     16  N   UNL A   1      33.406 -36.623 -29.929  0.00  0.00    -0.339 N 
ATOM     17  C   UNL A   1      32.571 -36.544 -28.840  0.00  0.00    +0.023 A 
ATOM     18  C   UNL A   1      32.596 -35.243 -28.375  0.00  0.00    -0.019 A 
ATOM     19  C   UNL A   1      33.492 -34.506 -29.195  0.00  0.00    +0.003 A 
ATOM     20  C   UNL A   1      33.922 -33.164 -29.204  0.00  0.00    -0.052 A 
ATOM     21  C   UNL A   1      34.856 -32.742 -30.154  0.00  0.00    -0.061 A 
ATOM     22  C   UNL A   1      35.364 -33.636 -31.089  0.00  0.00    -0.060 A 
ATOM     23  C   UNL A   1      34.950 -34.972 -31.105  0.00  0.00    -0.038 A 
ATOM     24  C   UNL A   1      34.005 -35.392 -30.150  0.00  0.00    +0.050 A 
ATOM     25  C   UNL A   1      31.790 -34.779 -27.206  0.00  0.00    -0.025 C 
ATOM     26  C   UNL A   1      31.293 -35.968 -26.366  0.00  0.00    -0.049 C 
ATOM     27  C   UNL A   1      30.740 -37.100 -27.248  0.00  0.00    -0.047 C 
ATOM     28  C   UNL A   1      31.804 -37.660 -28.210  0.00  0.00    -0.012 C 
ENDBRANCH  15  16
ENDBRANCH   5  15
TORSDOF 4
ENDMDL
MODEL 8
REMARK VINA RESULT:    -7.215      1.658      5.913
REMARK INTER + INTRA:         -11.034
REMARK INTER:                  -8.941
REMARK INTRA:                  -2.093
REMARK UNBOUND:                -2.132
REMARK  Name = cpd355.pdb
REMARK  5 active torsions:
REMARK  status: ('A' for Active; 'I' for Inactive)
REMARK    1  A    between atoms: C_1  and  C_2
REMARK    2  A    between atoms: C_6  and  C_7
REMARK    3  A    between atoms: C_7  and  N_8
REMARK    4  A    between atoms: C_12  and  C_13
REMARK    5  A    between atoms: C_13  and  N_14
REMARK                            x       y       z     vdW  Elec       q    Type
REMARK                         _______ _______ _______ _____ _____    ______ ____
ROOT
ATOM      1  N   UNL A   1      37.810 -36.029 -30.924  0.00  0.00    -0.349 N 
ATOM      2  C   UNL A   1      39.145 -35.849 -31.069  0.00  0.00    +0.005 A 
ATOM      3  C   UNL A   1      40.044 -36.717 -30.468  0.00  0.00    -0.045 A 
ATOM      4  C   UNL A   1      39.563 -37.763 -29.689  0.00  0.00    -0.054 A 
ATOM      5  C   UNL A   1      38.187 -37.929 -29.513  0.00  0.00    -0.012 A 
ATOM      6  C   UNL A   1      37.328 -37.044 -30.166  0.00  0.00    +0.010 A 
ENDROOT
BRANCH   1   7
ATOM      7  C   UNL A   1      36.864 -35.066 -31.549  0.00  0.00    +0.048 C 
BRANCH   7  13
ATOM      8  C   UNL A   1      32.225 -37.025 -31.347  0.00  0.00    -0.040 C 
ATOM      9  C   UNL A   1      33.262 -36.081 -30.809  0.00  0.00    -0.050 A 
ATOM     10  C   UNL A   1      32.944 -35.209 -29.762  0.00  0.00    -0.059 A 
ATOM     11  C   UNL A   1      33.888 -34.297 -29.292  0.00  0.00    -0.061 A 
ATOM     12  C   UNL A   1      35.158 -34.242 -29.865  0.00  0.00    -0.057 A 
ATOM     13  C   UNL A   1      35.499 -35.110 -30.913  0.00  0.00    -0.028 A 
ATOM     14  C   UNL A   1      34.534 -36.014 -31.389  0.00  0.00    -0.054 A 
ENDBRANCH   7  13
ENDBRANCH   1   7
BRANCH   5  15
ATOM     15  C   UNL A   1      37.629 -39.025 -28.631  0.00  0.00    +0.050 C 
BRANCH  15  16
ATOM     16  N   UNL A   1      36.179 -39.129 -28.758  0.00  0.00    -0.339 N 
ATOM     17  C   UNL A   1      35.260 -38.537 -27.923  0.00  0.00    +0.023 A 
ATOM     18  C   UNL A   1      33.998 -38.900 -28.353  0.00  0.00    -0.019 A 
ATOM     19  C   UNL A   1      34.148 -39.723 -29.499  0.00  0.00    +0.003 A 
ATOM     20  C   UNL A   1      33.238 -40.374 -30.356  0.00  0.00    -0.052 A 
ATOM     21  C   UNL A   1      33.714 -41.113 -31.442  0.00  0.00    -0.061 A 
ATOM     22  C   UNL A   1      35.080 -41.210 -31.684  0.00  0.00    -0.060 A 
ATOM     23  C   UNL A   1      36.005 -40.578 -30.847  0.00  0.00    -0.038 A 
ATOM     24  C   UNL A   1      35.520 -39.839 -29.751  0.00  0.00    +0.050 A 
ATOM     25  C   UNL A   1      32.746 -38.455 -27.669  0.00  0.00    -0.025 C 
ATOM     26  C   UNL A   1      33.014 -37.256 -26.743  0.00  0.00    -0.049 C 
ATOM     27  C   UNL A   1      34.288 -37.454 -25.905  0.00  0.00    -0.047 C 
ATOM     28  C   UNL A   1      35.542 -37.615 -26.784  0.00  0.00    -0.012 C 
ENDBRANCH  15  16
ENDBRANCH   5  15
TORSDOF 4
ENDMDL
MODEL 9
REMARK VINA RESULT:    -7.188      3.259      6.522
REMARK INTER + INTRA:         -11.001
REMARK INTER:                  -9.983
REMARK INTRA:                  -1.018
REMARK UNBOUND:                -2.132
REMARK  Name = cpd355.pdb
REMARK  5 active torsions:
REMARK  status: ('A' for Active; 'I' for Inactive)
REMARK    1  A    between atoms: C_1  and  C_2
REMARK    2  A    between atoms: C_6  and  C_7
REMARK    3  A    between atoms: C_7  and  N_8
REMARK    4  A    between atoms: C_12  and  C_13
REMARK    5  A    between atoms: C_13  and  N_14
REMARK                            x       y       z     vdW  Elec       q    Type
REMARK                         _______ _______ _______ _____ _____    ______ ____
ROOT
ATOM      1  N   UNL A   1      32.433 -33.703 -30.170  0.00  0.00    -0.349 N 
ATOM      2  C   UNL A   1      33.111 -32.771 -29.458  0.00  0.00    +0.005 A 
ATOM      3  C   UNL A   1      34.493 -32.685 -29.544  0.00  0.00    -0.045 A 
ATOM      4  C   UNL A   1      35.182 -33.583 -30.349  0.00  0.00    -0.054 A 
ATOM      5  C   UNL A   1      34.485 -34.564 -31.058  0.00  0.00    -0.012 A 
ATOM      6  C   UNL A   1      33.093 -34.586 -30.958  0.00  0.00    +0.010 A 
ENDROOT
BRANCH   1   7
ATOM      7  C   UNL A   1      30.954 -33.801 -30.036  0.00  0.00    +0.048 C 
BRANCH   7  13
ATOM      8  C   UNL A   1      28.314 -29.906 -28.231  0.00  0.00    -0.040 C 
ATOM      9  C   UNL A   1      29.012 -30.585 -29.374  0.00  0.00    -0.050 A 
ATOM     10  C   UNL A   1      28.977 -30.021 -30.654  0.00  0.00    -0.059 A 
ATOM     11  C   UNL A   1      29.579 -30.672 -31.729  0.00  0.00    -0.061 A 
ATOM     12  C   UNL A   1      30.221 -31.896 -31.539  0.00  0.00    -0.057 A 
ATOM     13  C   UNL A   1      30.271 -32.478 -30.264  0.00  0.00    -0.028 A 
ATOM     14  C   UNL A   1      29.645 -31.820 -29.190  0.00  0.00    -0.054 A 
ENDBRANCH   7  13
ENDBRANCH   1   7
BRANCH   5  15
ATOM     15  C   UNL A   1      35.206 -35.591 -31.905  0.00  0.00    +0.050 C 
BRANCH  15  16
ATOM     16  N   UNL A   1      36.286 -36.235 -31.164  0.00  0.00    -0.339 N 
ATOM     17  C   UNL A   1      36.123 -37.116 -30.121  0.00  0.00    +0.023 A 
ATOM     18  C   UNL A   1      37.378 -37.475 -29.666  0.00  0.00    -0.019 A 
ATOM     19  C   UNL A   1      38.340 -36.809 -30.471  0.00  0.00    +0.003 A 
ATOM     20  C   UNL A   1      39.749 -36.790 -30.488  0.00  0.00    -0.052 A 
ATOM     21  C   UNL A   1      40.420 -36.029 -31.448  0.00  0.00    -0.061 A 
ATOM     22  C   UNL A   1      39.708 -35.291 -32.387  0.00  0.00    -0.060 A 
ATOM     23  C   UNL A   1      38.310 -35.290 -32.390  0.00  0.00    -0.038 A 
ATOM     24  C   UNL A   1      37.638 -36.053 -31.417  0.00  0.00    +0.050 A 
ATOM     25  C   UNL A   1      37.592 -38.410 -28.521  0.00  0.00    -0.025 C 
ATOM     26  C   UNL A   1      36.317 -39.214 -28.213  0.00  0.00    -0.049 C 
ATOM     27  C   UNL A   1      35.064 -38.323 -28.220  0.00  0.00    -0.047 C 
ATOM     28  C   UNL A   1      34.837 -37.652 -29.587  0.00  0.00    -0.012 C 
ENDBRANCH  15  16
ENDBRANCH   5  15
TORSDOF 4
ENDMDL
MODEL 10
REMARK VINA RESULT:    -7.103      1.691      5.473
REMARK INTER + INTRA:         -10.895
REMARK INTER:                  -8.735
REMARK INTRA:                  -2.160
REMARK UNBOUND:                -2.132
REMARK  Name = cpd355.pdb
REMARK  5 active torsions:
REMARK  status: ('A' for Active; 'I' for Inactive)
REMARK    1  A    between atoms: C_1  and  C_2
REMARK    2  A    between atoms: C_6  and  C_7
REMARK    3  A    between atoms: C_7  and  N_8
REMARK    4  A    between atoms: C_12  and  C_13
REMARK    5  A    between atoms: C_13  and  N_14
REMARK                            x       y       z     vdW  Elec       q    Type
REMARK                         _______ _______ _______ _____ _____    ______ ____
ROOT
ATOM      1  N   UNL A   1      37.471 -35.998 -30.759  0.00  0.00    -0.349 N 
ATOM      2  C   UNL A   1      38.791 -35.823 -31.008  0.00  0.00    +0.005 A 
ATOM      3  C   UNL A   1      39.729 -36.704 -30.490  0.00  0.00    -0.045 A 
ATOM      4  C   UNL A   1      39.306 -37.756 -29.689  0.00  0.00    -0.054 A 
ATOM      5  C   UNL A   1      37.947 -37.917 -29.406  0.00  0.00    -0.012 A 
ATOM      6  C   UNL A   1      37.044 -37.019 -29.977  0.00  0.00    +0.010 A 
ENDROOT
BRANCH   1   7
ATOM      7  C   UNL A   1      36.485 -35.022 -31.295  0.00  0.00    +0.048 C 
BRANCH   7  13
ATOM      8  C   UNL A   1      32.555 -34.191 -28.251  0.00  0.00    -0.040 C 
ATOM      9  C   UNL A   1      33.169 -34.919 -29.412  0.00  0.00    -0.050 A 
ATOM     10  C   UNL A   1      32.456 -35.931 -30.064  0.00  0.00    -0.059 A 
ATOM     11  C   UNL A   1      33.039 -36.645 -31.110  0.00  0.00    -0.061 A 
ATOM     12  C   UNL A   1      34.342 -36.358 -31.514  0.00  0.00    -0.057 A 
ATOM     13  C   UNL A   1      35.074 -35.345 -30.877  0.00  0.00    -0.028 A 
ATOM     14  C   UNL A   1      34.482 -34.644 -29.813  0.00  0.00    -0.054 A 
ENDBRANCH   7  13
ENDBRANCH   1   7
BRANCH   5  15
ATOM     15  C   UNL A   1      37.454 -39.022 -28.495  0.00  0.00    +0.050 C 
BRANCH  15  16
ATOM     16  N   UNL A   1      36.005 -39.175 -28.575  0.00  0.00    -0.339 N 
ATOM     17  C   UNL A   1      35.334 -39.971 -29.475  0.00  0.00    +0.023 A 
ATOM     18  C   UNL A   1      33.979 -39.819 -29.250  0.00  0.00    -0.019 A 
ATOM     19  C   UNL A   1      33.815 -38.918 -28.165  0.00  0.00    +0.003 A 
ATOM     20  C   UNL A   1      32.690 -38.396 -27.495  0.00  0.00    -0.052 A 
ATOM     21  C   UNL A   1      32.868 -37.523 -26.419  0.00  0.00    -0.061 A 
ATOM     22  C   UNL A   1      34.146 -37.167 -26.004  0.00  0.00    -0.060 A 
ATOM     23  C   UNL A   1      35.279 -37.667 -26.654  0.00  0.00    -0.038 A 
ATOM     24  C   UNL A   1      35.095 -38.542 -27.741  0.00  0.00    +0.050 A 
ATOM     25  C   UNL A   1      32.937 -40.522 -30.058  0.00  0.00    -0.025 C 
ATOM     26  C   UNL A   1      33.540 -41.702 -30.838  0.00  0.00    -0.049 C 
ATOM     27  C   UNL A   1      34.870 -41.324 -31.510  0.00  0.00    -0.047 C 
ATOM     28  C   UNL A   1      35.934 -40.889 -30.487  0.00  0.00    -0.012 C 
ENDBRANCH  15  16
ENDBRANCH   5  15
TORSDOF 4
ENDMDL
MODEL 11
REMARK VINA RESULT:    -7.098     18.779     22.476
REMARK INTER + INTRA:         -10.890
REMARK INTER:                  -8.704
REMARK INTRA:                  -2.185
REMARK UNBOUND:                -2.132
REMARK  Name = cpd355.pdb
REMARK  5 active torsions:
REMARK  status: ('A' for Active; 'I' for Inactive)
REMARK    1  A    between atoms: C_1  and  C_2
REMARK    2  A    between atoms: C_6  and  C_7
REMARK    3  A    between atoms: C_7  and  N_8
REMARK    4  A    between atoms: C_12  and  C_13
REMARK    5  A    between atoms: C_13  and  N_14
REMARK                            x       y       z     vdW  Elec       q    Type
REMARK                         _______ _______ _______ _____ _____    ______ ____
ROOT
ATOM      1  N   UNL A   1      43.155 -20.849 -37.294  0.00  0.00    -0.349 N 
ATOM      2  C   UNL A   1      42.041 -21.565 -37.006  0.00  0.00    +0.005 A 
ATOM      3  C   UNL A   1      41.261 -22.094 -38.023  0.00  0.00    -0.045 A 
ATOM      4  C   UNL A   1      41.615 -21.861 -39.345  0.00  0.00    -0.054 A 
ATOM      5  C   UNL A   1      42.746 -21.095 -39.642  0.00  0.00    -0.012 A 
ATOM      6  C   UNL A   1      43.512 -20.612 -38.580  0.00  0.00    +0.010 A 
ENDROOT
BRANCH   1   7
ATOM      7  C   UNL A   1      43.958 -20.260 -36.188  0.00  0.00    +0.048 C 
BRANCH   7  13
ATOM      8  C   UNL A   1      45.828 -15.731 -37.367  0.00  0.00    -0.040 C 
ATOM      9  C   UNL A   1      46.004 -17.218 -37.242  0.00  0.00    -0.050 A 
ATOM     10  C   UNL A   1      47.198 -17.821 -37.650  0.00  0.00    -0.059 A 
ATOM     11  C   UNL A   1      47.348 -19.206 -37.584  0.00  0.00    -0.061 A 
ATOM     12  C   UNL A   1      46.304 -20.003 -37.113  0.00  0.00    -0.057 A 
ATOM     13  C   UNL A   1      45.100 -19.418 -36.696  0.00  0.00    -0.028 A 
ATOM     14  C   UNL A   1      44.954 -18.023 -36.783  0.00  0.00    -0.054 A 
ENDBRANCH   7  13
ENDBRANCH   1   7
BRANCH   5  15
ATOM     15  C   UNL A   1      43.134 -20.778 -41.070  0.00  0.00    +0.050 C 
BRANCH  15  16
ATOM     16  N   UNL A   1      44.499 -20.266 -41.154  0.00  0.00    -0.339 N 
ATOM     17  C   UNL A   1      45.628 -21.030 -41.330  0.00  0.00    +0.023 A 
ATOM     18  C   UNL A   1      46.721 -20.183 -41.324  0.00  0.00    -0.019 A 
ATOM     19  C   UNL A   1      46.243 -18.857 -41.159  0.00  0.00    +0.003 A 
ATOM     20  C   UNL A   1      46.871 -17.597 -41.085  0.00  0.00    -0.052 A 
ATOM     21  C   UNL A   1      46.098 -16.444 -40.939  0.00  0.00    -0.061 A 
ATOM     22  C   UNL A   1      44.712 -16.528 -40.867  0.00  0.00    -0.060 A 
ATOM     23  C   UNL A   1      44.063 -17.765 -40.934  0.00  0.00    -0.038 A 
ATOM     24  C   UNL A   1      44.847 -18.926 -41.075  0.00  0.00    +0.050 A 
ATOM     25  C   UNL A   1      48.126 -20.667 -41.472  0.00  0.00    -0.025 C 
ATOM     26  C   UNL A   1      48.166 -22.096 -42.038  0.00  0.00    -0.049 C 
ATOM     27  C   UNL A   1      47.135 -23.010 -41.356  0.00  0.00    -0.047 C 
ATOM     28  C   UNL A   1      45.693 -22.505 -41.550  0.00  0.00    -0.012 C 
ENDBRANCH  15  16
ENDBRANCH   5  15
TORSDOF 4
ENDMDL
MODEL 12
REMARK VINA RESULT:    -7.075     16.803     20.725
REMARK INTER + INTRA:         -10.861
REMARK INTER:                  -9.237
REMARK INTRA:                  -1.624
REMARK UNBOUND:                -2.132
REMARK  Name = cpd355.pdb
REMARK  5 active torsions:
REMARK  status: ('A' for Active; 'I' for Inactive)
REMARK    1  A    between atoms: C_1  and  C_2
REMARK    2  A    between atoms: C_6  and  C_7
REMARK    3  A    between atoms: C_7  and  N_8
REMARK    4  A    between atoms: C_12  and  C_13
REMARK    5  A    between atoms: C_13  and  N_14
REMARK                            x       y       z     vdW  Elec       q    Type
REMARK                         _______ _______ _______ _____ _____    ______ ____
ROOT
ATOM      1  N   UNL A   1      46.402 -19.551 -37.347  0.00  0.00    -0.349 N 
ATOM      2  C   UNL A   1      47.057 -19.854 -36.201  0.00  0.00    +0.005 A 
ATOM      3  C   UNL A   1      46.373 -19.936 -34.997  0.00  0.00    -0.045 A 
ATOM      4  C   UNL A   1      45.009 -19.678 -34.971  0.00  0.00    -0.054 A 
ATOM      5  C   UNL A   1      44.339 -19.334 -36.147  0.00  0.00    -0.012 A 
ATOM      6  C   UNL A   1      45.071 -19.295 -37.335  0.00  0.00    +0.010 A 
ENDROOT
BRANCH   1   7
ATOM      7  C   UNL A   1      47.161 -19.433 -38.621  0.00  0.00    +0.048 C 
BRANCH   7  13
ATOM      8  C   UNL A   1      44.541 -20.092 -42.876  0.00  0.00    -0.040 C 
ATOM      9  C   UNL A   1      45.378 -20.656 -41.764  0.00  0.00    -0.050 A 
ATOM     10  C   UNL A   1      45.614 -22.033 -41.691  0.00  0.00    -0.059 A 
ATOM     11  C   UNL A   1      46.348 -22.569 -40.634  0.00  0.00    -0.061 A 
ATOM     12  C   UNL A   1      46.852 -21.735 -39.635  0.00  0.00    -0.057 A 
ATOM     13  C   UNL A   1      46.630 -20.351 -39.691  0.00  0.00    -0.028 A 
ATOM     14  C   UNL A   1      45.874 -19.825 -40.753  0.00  0.00    -0.054 A 
ENDBRANCH   7  13
ENDBRANCH   1   7
BRANCH   5  15
ATOM     15  C   UNL A   1      42.863 -18.997 -36.148  0.00  0.00    +0.050 C 
BRANCH  15  16
ATOM     16  N   UNL A   1      42.044 -20.175 -36.411  0.00  0.00    -0.339 N 
ATOM     17  C   UNL A   1      41.366 -20.905 -35.463  0.00  0.00    +0.023 A 
ATOM     18  C   UNL A   1      40.738 -21.957 -36.102  0.00  0.00    -0.019 A 
ATOM     19  C   UNL A   1      41.025 -21.857 -37.489  0.00  0.00    +0.003 A 
ATOM     20  C   UNL A   1      40.664 -22.624 -38.616  0.00  0.00    -0.052 A 
ATOM     21  C   UNL A   1      41.101 -22.239 -39.885  0.00  0.00    -0.061 A 
ATOM     22  C   UNL A   1      41.889 -21.105 -40.046  0.00  0.00    -0.060 A 
ATOM     23  C   UNL A   1      42.264 -20.328 -38.945  0.00  0.00    -0.038 A 
ATOM     24  C   UNL A   1      41.826 -20.723 -37.667  0.00  0.00    +0.050 A 
ATOM     25  C   UNL A   1      39.919 -22.977 -35.380  0.00  0.00    -0.025 C 
ATOM     26  C   UNL A   1      39.527 -22.483 -33.977  0.00  0.00    -0.049 C 
ATOM     27  C   UNL A   1      40.714 -21.832 -33.248  0.00  0.00    -0.047 C 
ATOM     28  C   UNL A   1      41.259 -20.607 -34.004  0.00  0.00    -0.012 C 
ENDBRANCH  15  16
ENDBRANCH   5  15
TORSDOF 4
ENDMDL
MODEL 13
REMARK VINA RESULT:    -6.963     16.775     20.512
REMARK INTER + INTRA:         -10.723
REMARK INTER:                  -9.282
REMARK INTRA:                  -1.441
REMARK UNBOUND:                -2.132
REMARK  Name = cpd355.pdb
REMARK  5 active torsions:
REMARK  status: ('A' for Active; 'I' for Inactive)
REMARK    1  A    between atoms: C_1  and  C_2
REMARK    2  A    between atoms: C_6  and  C_7
REMARK    3  A    between atoms: C_7  and  N_8
REMARK    4  A    between atoms: C_12  and  C_13
REMARK    5  A    between atoms: C_13  and  N_14
REMARK                            x       y       z     vdW  Elec       q    Type
REMARK                         _______ _______ _______ _____ _____    ______ ____
ROOT
ATOM      1  N   UNL A   1      46.306 -19.381 -37.351  0.00  0.00    -0.349 N 
ATOM      2  C   UNL A   1      47.017 -19.767 -36.265  0.00  0.00    +0.005 A 
ATOM      3  C   UNL A   1      46.388 -19.973 -35.046  0.00  0.00    -0.045 A 
ATOM      4  C   UNL A   1      45.020 -19.756 -34.941  0.00  0.00    -0.054 A 
ATOM      5  C   UNL A   1      44.292 -19.326 -36.053  0.00  0.00    -0.012 A 
ATOM      6  C   UNL A   1      44.971 -19.163 -37.262  0.00  0.00    +0.010 A 
ENDROOT
BRANCH   1   7
ATOM      7  C   UNL A   1      47.007 -19.131 -38.640  0.00  0.00    +0.048 C 
BRANCH   7  13
ATOM      8  C   UNL A   1      44.421 -20.034 -42.870  0.00  0.00    -0.040 C 
ATOM      9  C   UNL A   1      45.340 -20.510 -41.782  0.00  0.00    -0.050 A 
ATOM     10  C   UNL A   1      45.747 -21.847 -41.740  0.00  0.00    -0.059 A 
ATOM     11  C   UNL A   1      46.559 -22.306 -40.704  0.00  0.00    -0.061 A 
ATOM     12  C   UNL A   1      46.970 -21.435 -39.695  0.00  0.00    -0.057 A 
ATOM     13  C   UNL A   1      46.577 -20.089 -39.720  0.00  0.00    -0.028 A 
ATOM     14  C   UNL A   1      45.745 -19.641 -40.761  0.00  0.00    -0.054 A 
ENDBRANCH   7  13
ENDBRANCH   1   7
BRANCH   5  15
ATOM     15  C   UNL A   1      42.811 -19.030 -35.963  0.00  0.00    +0.050 C 
BRANCH  15  16
ATOM     16  N   UNL A   1      42.010 -20.239 -36.131  0.00  0.00    -0.339 N 
ATOM     17  C   UNL A   1      41.607 -20.769 -37.334  0.00  0.00    +0.023 A 
ATOM     18  C   UNL A   1      40.843 -21.891 -37.071  0.00  0.00    -0.019 A 
ATOM     19  C   UNL A   1      40.796 -22.065 -35.663  0.00  0.00    +0.003 A 
ATOM     20  C   UNL A   1      40.187 -23.016 -34.820  0.00  0.00    -0.052 A 
ATOM     21  C   UNL A   1      40.352 -22.922 -33.436  0.00  0.00    -0.061 A 
ATOM     22  C   UNL A   1      41.112 -21.897 -32.884  0.00  0.00    -0.060 A 
ATOM     23  C   UNL A   1      41.723 -20.937 -33.697  0.00  0.00    -0.038 A 
ATOM     24  C   UNL A   1      41.550 -21.033 -35.091  0.00  0.00    +0.050 A 
ATOM     25  C   UNL A   1      40.216 -22.718 -38.145  0.00  0.00    -0.025 C 
ATOM     26  C   UNL A   1      40.854 -22.430 -39.514  0.00  0.00    -0.049 C 
ATOM     27  C   UNL A   1      41.041 -20.923 -39.752  0.00  0.00    -0.047 C 
ATOM     28  C   UNL A   1      41.960 -20.278 -38.698  0.00  0.00    -0.012 C 
ENDBRANCH  15  16
ENDBRANCH   5  15
TORSDOF 4
ENDMDL
MODEL 14
REMARK VINA RESULT:    -6.899     19.332     21.902
REMARK INTER + INTRA:         -10.644
REMARK INTER:                  -8.884
REMARK INTRA:                  -1.760
REMARK UNBOUND:                -2.132
REMARK  Name = cpd355.pdb
REMARK  5 active torsions:
REMARK  status: ('A' for Active; 'I' for Inactive)
REMARK    1  A    between atoms: C_1  and  C_2
REMARK    2  A    between atoms: C_6  and  C_7
REMARK    3  A    between atoms: C_7  and  N_8
REMARK    4  A    between atoms: C_12  and  C_13
REMARK    5  A    between atoms: C_13  and  N_14
REMARK                            x       y       z     vdW  Elec       q    Type
REMARK                         _______ _______ _______ _____ _____    ______ ____
ROOT
ATOM      1  N   UNL A   1      44.311 -20.102 -35.863  0.00  0.00    -0.349 N 
ATOM      2  C   UNL A   1      44.667 -19.554 -34.676  0.00  0.00    +0.005 A 
ATOM      3  C   UNL A   1      45.878 -18.892 -34.540  0.00  0.00    -0.045 A 
ATOM      4  C   UNL A   1      46.740 -18.818 -35.627  0.00  0.00    -0.054 A 
ATOM      5  C   UNL A   1      46.386 -19.412 -36.841  0.00  0.00    -0.012 A 
ATOM      6  C   UNL A   1      45.143 -20.040 -36.931  0.00  0.00    +0.010 A 
ENDROOT
BRANCH   1   7
ATOM      7  C   UNL A   1      43.023 -20.839 -35.977  0.00  0.00    +0.048 C 
BRANCH   7  13
ATOM      8  C   UNL A   1      41.804 -21.787 -40.774  0.00  0.00    -0.040 C 
ATOM      9  C   UNL A   1      41.658 -20.948 -39.538  0.00  0.00    -0.050 A 
ATOM     10  C   UNL A   1      40.865 -19.796 -39.560  0.00  0.00    -0.059 A 
ATOM     11  C   UNL A   1      40.766 -18.985 -38.430  0.00  0.00    -0.061 A 
ATOM     12  C   UNL A   1      41.462 -19.314 -37.267  0.00  0.00    -0.057 A 
ATOM     13  C   UNL A   1      42.260 -20.466 -37.222  0.00  0.00    -0.028 A 
ATOM     14  C   UNL A   1      42.365 -21.267 -38.372  0.00  0.00    -0.054 A 
ENDBRANCH   7  13
ENDBRANCH   1   7
BRANCH   5  15
ATOM     15  C   UNL A   1      47.321 -19.395 -38.032  0.00  0.00    +0.050 C 
BRANCH  15  16
ATOM     16  N   UNL A   1      46.625 -19.746 -39.266  0.00  0.00    -0.339 N 
ATOM     17  C   UNL A   1      45.678 -18.972 -39.895  0.00  0.00    +0.023 A 
ATOM     18  C   UNL A   1      45.235 -19.662 -41.008  0.00  0.00    -0.019 A 
ATOM     19  C   UNL A   1      45.948 -20.887 -41.073  0.00  0.00    +0.003 A 
ATOM     20  C   UNL A   1      45.933 -21.976 -41.968  0.00  0.00    -0.052 A 
ATOM     21  C   UNL A   1      46.798 -23.054 -41.763  0.00  0.00    -0.061 A 
ATOM     22  C   UNL A   1      47.674 -23.060 -40.684  0.00  0.00    -0.060 A 
ATOM     23  C   UNL A   1      47.707 -21.995 -39.778  0.00  0.00    -0.038 A 
ATOM     24  C   UNL A   1      46.829 -20.913 -39.985  0.00  0.00    +0.050 A 
ATOM     25  C   UNL A   1      44.184 -19.133 -41.929  0.00  0.00    -0.025 C 
ATOM     26  C   UNL A   1      43.986 -17.620 -41.736  0.00  0.00    -0.049 C 
ATOM     27  C   UNL A   1      43.931 -17.236 -40.248  0.00  0.00    -0.047 C 
ATOM     28  C   UNL A   1      45.229 -17.603 -39.505  0.00  0.00    -0.012 C 
ENDBRANCH  15  16
ENDBRANCH   5  15
TORSDOF 4
ENDMDL
MODEL 15
REMARK VINA RESULT:    -6.895      1.584      6.052
REMARK INTER + INTRA:         -10.639
REMARK INTER:                  -9.598
REMARK INTRA:                  -1.040
REMARK UNBOUND:                -2.132
REMARK  Name = cpd355.pdb
REMARK  5 active torsions:
REMARK  status: ('A' for Active; 'I' for Inactive)
REMARK    1  A    between atoms: C_1  and  C_2
REMARK    2  A    between atoms: C_6  and  C_7
REMARK    3  A    between atoms: C_7  and  N_8
REMARK    4  A    between atoms: C_12  and  C_13
REMARK    5  A    between atoms: C_13  and  N_14
REMARK                            x       y       z     vdW  Elec       q    Type
REMARK                         _______ _______ _______ _____ _____    ______ ____
ROOT
ATOM      1  N   UNL A   1      36.459 -38.754 -29.035  0.00  0.00    -0.349 N 
ATOM      2  C   UNL A   1      36.334 -40.103 -29.017  0.00  0.00    +0.005 A 
ATOM      3  C   UNL A   1      35.085 -40.698 -29.117  0.00  0.00    -0.045 A 
ATOM      4  C   UNL A   1      33.955 -39.896 -29.210  0.00  0.00    -0.054 A 
ATOM      5  C   UNL A   1      34.081 -38.504 -29.195  0.00  0.00    -0.012 A 
ATOM      6  C   UNL A   1      35.364 -37.960 -29.123  0.00  0.00    +0.010 A 
ENDROOT
BRANCH   1   7
ATOM      7  C   UNL A   1      37.805 -38.137 -28.891  0.00  0.00    +0.048 C 
BRANCH   7  13
ATOM      8  C   UNL A   1      40.875 -36.330 -32.456  0.00  0.00    -0.040 C 
ATOM      9  C   UNL A   1      39.573 -36.271 -31.710  0.00  0.00    -0.050 A 
ATOM     10  C   UNL A   1      38.655 -35.250 -31.977  0.00  0.00    -0.059 A 
ATOM     11  C   UNL A   1      37.467 -35.161 -31.252  0.00  0.00    -0.061 A 
ATOM     12  C   UNL A   1      37.184 -36.090 -30.251  0.00  0.00    -0.057 A 
ATOM     13  C   UNL A   1      38.088 -37.125 -29.971  0.00  0.00    -0.028 A 
ATOM     14  C   UNL A   1      39.290 -37.194 -30.696  0.00  0.00    -0.054 A 
ENDBRANCH   7  13
ENDBRANCH   1   7
BRANCH   5  15
ATOM     15  C   UNL A   1      32.869 -37.599 -29.243  0.00  0.00    +0.050 C 
BRANCH  15  16
ATOM     16  N   UNL A   1      32.937 -36.669 -30.365  0.00  0.00    -0.339 N 
ATOM     17  C   UNL A   1      33.415 -35.381 -30.306  0.00  0.00    +0.023 A 
ATOM     18  C   UNL A   1      33.283 -34.818 -31.561  0.00  0.00    -0.019 A 
ATOM     19  C   UNL A   1      32.726 -35.801 -32.422  0.00  0.00    +0.003 A 
ATOM     20  C   UNL A   1      32.375 -35.813 -33.787  0.00  0.00    -0.052 A 
ATOM     21  C   UNL A   1      31.855 -36.977 -34.358  0.00  0.00    -0.061 A 
ATOM     22  C   UNL A   1      31.682 -38.123 -33.591  0.00  0.00    -0.060 A 
ATOM     23  C   UNL A   1      32.017 -38.137 -32.233  0.00  0.00    -0.038 A 
ATOM     24  C   UNL A   1      32.535 -36.960 -31.660  0.00  0.00    +0.050 A 
ATOM     25  C   UNL A   1      33.684 -33.413 -31.871  0.00  0.00    -0.025 C 
ATOM     26  C   UNL A   1      34.613 -32.847 -30.783  0.00  0.00    -0.049 C 
ATOM     27  C   UNL A   1      34.108 -33.182 -29.370  0.00  0.00    -0.047 C 
ATOM     28  C   UNL A   1      34.026 -34.700 -29.126  0.00  0.00    -0.012 C 
ENDBRANCH  15  16
ENDBRANCH   5  15
TORSDOF 4
ENDMDL
MODEL 16
REMARK VINA RESULT:    -6.736      1.599      5.314
REMARK INTER + INTRA:         -10.442
REMARK INTER:                  -9.109
REMARK INTRA:                  -1.334
REMARK UNBOUND:                -2.132
REMARK  Name = cpd355.pdb
REMARK  5 active torsions:
REMARK  status: ('A' for Active; 'I' for Inactive)
REMARK    1  A    between atoms: C_1  and  C_2
REMARK    2  A    between atoms: C_6  and  C_7
REMARK    3  A    between atoms: C_7  and  N_8
REMARK    4  A    between atoms: C_12  and  C_13
REMARK    5  A    between atoms: C_13  and  N_14
REMARK                            x       y       z     vdW  Elec       q    Type
REMARK                         _______ _______ _______ _____ _____    ______ ____
ROOT
ATOM      1  N   UNL A   1      33.970 -34.628 -31.224  0.00  0.00    -0.349 N 
ATOM      2  C   UNL A   1      33.321 -34.153 -32.314  0.00  0.00    +0.005 A 
ATOM      3  C   UNL A   1      32.169 -34.773 -32.777  0.00  0.00    -0.045 A 
ATOM      4  C   UNL A   1      31.699 -35.906 -32.127  0.00  0.00    -0.054 A 
ATOM      5  C   UNL A   1      32.387 -36.415 -31.022  0.00  0.00    -0.012 A 
ATOM      6  C   UNL A   1      33.523 -35.735 -30.582  0.00  0.00    +0.010 A 
ENDROOT
BRANCH   1   7
ATOM      7  C   UNL A   1      35.222 -33.969 -30.767  0.00  0.00    +0.048 C 
BRANCH   7  13
ATOM      8  C   UNL A   1      39.587 -35.851 -32.442  0.00  0.00    -0.040 C 
ATOM      9  C   UNL A   1      38.485 -35.834 -31.422  0.00  0.00    -0.050 A 
ATOM     10  C   UNL A   1      38.486 -36.756 -30.370  0.00  0.00    -0.059 A 
ATOM     11  C   UNL A   1      37.439 -36.778 -29.449  0.00  0.00    -0.061 A 
ATOM     12  C   UNL A   1      36.379 -35.881 -29.570  0.00  0.00    -0.057 A 
ATOM     13  C   UNL A   1      36.360 -34.945 -30.615  0.00  0.00    -0.028 A 
ATOM     14  C   UNL A   1      37.412 -34.943 -31.547  0.00  0.00    -0.054 A 
ENDBRANCH   7  13
ENDBRANCH   1   7
BRANCH   5  15
ATOM     15  C   UNL A   1      31.932 -37.677 -30.320  0.00  0.00    +0.050 C 
BRANCH  15  16
ATOM     16  N   UNL A   1      32.947 -38.171 -29.394  0.00  0.00    -0.339 N 
ATOM     17  C   UNL A   1      33.060 -37.814 -28.071  0.00  0.00    +0.023 A 
ATOM     18  C   UNL A   1      34.160 -38.467 -27.546  0.00  0.00    -0.019 A 
ATOM     19  C   UNL A   1      34.725 -39.264 -28.576  0.00  0.00    +0.003 A 
ATOM     20  C   UNL A   1      35.831 -40.136 -28.636  0.00  0.00    -0.052 A 
ATOM     21  C   UNL A   1      36.119 -40.809 -29.826  0.00  0.00    -0.061 A 
ATOM     22  C   UNL A   1      35.324 -40.625 -30.951  0.00  0.00    -0.060 A 
ATOM     23  C   UNL A   1      34.223 -39.763 -30.920  0.00  0.00    -0.038 A 
ATOM     24  C   UNL A   1      33.940 -39.082 -29.721  0.00  0.00    +0.050 A 
ATOM     25  C   UNL A   1      34.605 -38.303 -26.130  0.00  0.00    -0.025 C 
ATOM     26  C   UNL A   1      33.490 -37.692 -25.264  0.00  0.00    -0.049 C 
ATOM     27  C   UNL A   1      32.802 -36.511 -25.967  0.00  0.00    -0.047 C 
ATOM     28  C   UNL A   1      32.143 -36.929 -27.294  0.00  0.00    -0.012 C 
ENDBRANCH  15  16
ENDBRANCH   5  15
TORSDOF 4
ENDMDL
MODEL 17
REMARK VINA RESULT:    -6.557     19.128     22.166
REMARK INTER + INTRA:         -10.221
REMARK INTER:                  -8.728
REMARK INTRA:                  -1.494
REMARK UNBOUND:                -2.132
REMARK  Name = cpd355.pdb
REMARK  5 active torsions:
REMARK  status: ('A' for Active; 'I' for Inactive)
REMARK    1  A    between atoms: C_1  and  C_2
REMARK    2  A    between atoms: C_6  and  C_7
REMARK    3  A    between atoms: C_7  and  N_8
REMARK    4  A    between atoms: C_12  and  C_13
REMARK    5  A    between atoms: C_13  and  N_14
REMARK                            x       y       z     vdW  Elec       q    Type
REMARK                         _______ _______ _______ _____ _____    ______ ____
ROOT
ATOM      1  N   UNL A   1      46.989 -17.761 -39.271  0.00  0.00    -0.349 N 
ATOM      2  C   UNL A   1      47.093 -16.564 -38.647  0.00  0.00    +0.005 A 
ATOM      3  C   UNL A   1      46.873 -16.458 -37.281  0.00  0.00    -0.045 A 
ATOM      4  C   UNL A   1      46.518 -17.591 -36.559  0.00  0.00    -0.054 A 
ATOM      5  C   UNL A   1      46.380 -18.820 -37.209  0.00  0.00    -0.012 A 
ATOM      6  C   UNL A   1      46.641 -18.874 -38.580  0.00  0.00    +0.010 A 
ENDROOT
BRANCH   1   7
ATOM      7  C   UNL A   1      47.194 -17.845 -40.742  0.00  0.00    +0.048 C 
BRANCH   7  13
ATOM      8  C   UNL A   1      47.341 -22.700 -42.087  0.00  0.00    -0.040 C 
ATOM      9  C   UNL A   1      46.589 -21.405 -41.973  0.00  0.00    -0.050 A 
ATOM     10  C   UNL A   1      45.288 -21.300 -42.478  0.00  0.00    -0.059 A 
ATOM     11  C   UNL A   1      44.604 -20.087 -42.421  0.00  0.00    -0.061 A 
ATOM     12  C   UNL A   1      45.213 -18.963 -41.862  0.00  0.00    -0.057 A 
ATOM     13  C   UNL A   1      46.515 -19.047 -41.347  0.00  0.00    -0.028 A 
ATOM     14  C   UNL A   1      47.201 -20.272 -41.425  0.00  0.00    -0.054 A 
ENDBRANCH   7  13
ENDBRANCH   1   7
BRANCH   5  15
ATOM     15  C   UNL A   1      45.945 -20.064 -36.465  0.00  0.00    +0.050 C 
BRANCH  15  16
ATOM     16  N   UNL A   1      44.491 -20.185 -36.425  0.00  0.00    -0.339 N 
ATOM     17  C   UNL A   1      43.690 -19.835 -35.363  0.00  0.00    +0.023 A 
ATOM     18  C   UNL A   1      42.383 -20.130 -35.700  0.00  0.00    -0.019 A 
ATOM     19  C   UNL A   1      42.381 -20.657 -37.018  0.00  0.00    +0.003 A 
ATOM     20  C   UNL A   1      41.366 -21.120 -37.880  0.00  0.00    -0.052 A 
ATOM     21  C   UNL A   1      41.696 -21.568 -39.161  0.00  0.00    -0.061 A 
ATOM     22  C   UNL A   1      43.018 -21.560 -39.592  0.00  0.00    -0.060 A 
ATOM     23  C   UNL A   1      44.044 -21.110 -38.756  0.00  0.00    -0.038 A 
ATOM     24  C   UNL A   1      43.708 -20.665 -37.464  0.00  0.00    +0.050 A 
ATOM     25  C   UNL A   1      41.232 -19.899 -34.775  0.00  0.00    -0.025 C 
ATOM     26  C   UNL A   1      41.618 -18.942 -33.635  0.00  0.00    -0.049 C 
ATOM     27  C   UNL A   1      42.992 -19.288 -33.038  0.00  0.00    -0.047 C 
ATOM     28  C   UNL A   1      44.119 -19.196 -34.084  0.00  0.00    -0.012 C 
ENDBRANCH  15  16
ENDBRANCH   5  15
TORSDOF 4
ENDMDL
MODEL 18
REMARK VINA RESULT:    -6.534     19.908     22.504
REMARK INTER + INTRA:         -10.194
REMARK INTER:                  -7.902
REMARK INTRA:                  -2.293
REMARK UNBOUND:                -2.132
REMARK  Name = cpd355.pdb
REMARK  5 active torsions:
REMARK  status: ('A' for Active; 'I' for Inactive)
REMARK    1  A    between atoms: C_1  and  C_2
REMARK    2  A    between atoms: C_6  and  C_7
REMARK    3  A    between atoms: C_7  and  N_8
REMARK    4  A    between atoms: C_12  and  C_13
REMARK    5  A    between atoms: C_13  and  N_14
REMARK                            x       y       z     vdW  Elec       q    Type
REMARK                         _______ _______ _______ _____ _____    ______ ____
ROOT
ATOM      1  N   UNL A   1      44.892 -19.932 -35.997  0.00  0.00    -0.349 N 
ATOM      2  C   UNL A   1      45.713 -20.249 -34.967  0.00  0.00    +0.005 A 
ATOM      3  C   UNL A   1      47.077 -20.014 -35.054  0.00  0.00    -0.045 A 
ATOM      4  C   UNL A   1      47.602 -19.474 -36.221  0.00  0.00    -0.054 A 
ATOM      5  C   UNL A   1      46.759 -19.177 -37.295  0.00  0.00    -0.012 A 
ATOM      6  C   UNL A   1      45.391 -19.406 -37.142  0.00  0.00    +0.010 A 
ENDROOT
BRANCH   1   7
ATOM      7  C   UNL A   1      43.437 -20.225 -35.896  0.00  0.00    +0.048 C 
BRANCH   7  13
ATOM      8  C   UNL A   1      41.922 -21.409 -40.555  0.00  0.00    -0.040 C 
ATOM      9  C   UNL A   1      41.943 -20.450 -39.399  0.00  0.00    -0.050 A 
ATOM     10  C   UNL A   1      41.324 -19.201 -39.511  0.00  0.00    -0.059 A 
ATOM     11  C   UNL A   1      41.383 -18.287 -38.460  0.00  0.00    -0.061 A 
ATOM     12  C   UNL A   1      42.066 -18.609 -37.287  0.00  0.00    -0.057 A 
ATOM     13  C   UNL A   1      42.691 -19.858 -37.153  0.00  0.00    -0.028 A 
ATOM     14  C   UNL A   1      42.638 -20.765 -38.225  0.00  0.00    -0.054 A 
ENDBRANCH   7  13
ENDBRANCH   1   7
BRANCH   5  15
ATOM     15  C   UNL A   1      47.302 -18.635 -38.600  0.00  0.00    +0.050 C 
BRANCH  15  16
ATOM     16  N   UNL A   1      46.337 -18.783 -39.685  0.00  0.00    -0.339 N 
ATOM     17  C   UNL A   1      46.238 -19.869 -40.523  0.00  0.00    +0.023 A 
ATOM     18  C   UNL A   1      45.229 -19.615 -41.433  0.00  0.00    -0.019 A 
ATOM     19  C   UNL A   1      44.680 -18.342 -41.130  0.00  0.00    +0.003 A 
ATOM     20  C   UNL A   1      43.644 -17.569 -41.693  0.00  0.00    -0.052 A 
ATOM     21  C   UNL A   1      43.320 -16.331 -41.134  0.00  0.00    -0.061 A 
ATOM     22  C   UNL A   1      44.011 -15.856 -40.025  0.00  0.00    -0.060 A 
ATOM     23  C   UNL A   1      45.044 -16.600 -39.448  0.00  0.00    -0.038 A 
ATOM     24  C   UNL A   1      45.372 -17.845 -40.019  0.00  0.00    +0.050 A 
ATOM     25  C   UNL A   1      44.850 -20.571 -42.516  0.00  0.00    -0.025 C 
ATOM     26  C   UNL A   1      45.399 -21.980 -42.232  0.00  0.00    -0.049 C 
ATOM     27  C   UNL A   1      46.861 -21.938 -41.756  0.00  0.00    -0.047 C 
ATOM     28  C   UNL A   1      47.025 -21.135 -40.453  0.00  0.00    -0.012 C 
ENDBRANCH  15  16
ENDBRANCH   5  15
TORSDOF 4
ENDMDL
MODEL 19
REMARK VINA RESULT:    -6.291     19.144     22.048
REMARK INTER + INTRA:          -9.893
REMARK INTER:                  -8.471
REMARK INTRA:                  -1.422
REMARK UNBOUND:                -2.132
REMARK  Name = cpd355.pdb
REMARK  5 active torsions:
REMARK  status: ('A' for Active; 'I' for Inactive)
REMARK    1  A    between atoms: C_1  and  C_2
REMARK    2  A    between atoms: C_6  and  C_7
REMARK    3  A    between atoms: C_7  and  N_8
REMARK    4  A    between atoms: C_12  and  C_13
REMARK    5  A    between atoms: C_13  and  N_14
REMARK                            x       y       z     vdW  Elec       q    Type
REMARK                         _______ _______ _______ _____ _____    ______ ____
ROOT
ATOM      1  N   UNL A   1      46.809 -17.652 -39.156  0.00  0.00    -0.349 N 
ATOM      2  C   UNL A   1      47.001 -16.470 -38.523  0.00  0.00    +0.005 A 
ATOM      3  C   UNL A   1      46.860 -16.374 -37.146  0.00  0.00    -0.045 A 
ATOM      4  C   UNL A   1      46.492 -17.500 -36.421  0.00  0.00    -0.054 A 
ATOM      5  C   UNL A   1      46.261 -18.711 -37.077  0.00  0.00    -0.012 A 
ATOM      6  C   UNL A   1      46.447 -18.757 -38.460  0.00  0.00    +0.010 A 
ENDROOT
BRANCH   1   7
ATOM      7  C   UNL A   1      46.931 -17.724 -40.637  0.00  0.00    +0.048 C 
BRANCH   7  13
ATOM      8  C   UNL A   1      47.230 -22.626 -41.764  0.00  0.00    -0.040 C 
ATOM      9  C   UNL A   1      46.444 -21.347 -41.724  0.00  0.00    -0.050 A 
ATOM     10  C   UNL A   1      45.154 -21.298 -42.263  0.00  0.00    -0.059 A 
ATOM     11  C   UNL A   1      44.439 -20.101 -42.274  0.00  0.00    -0.061 A 
ATOM     12  C   UNL A   1      45.006 -18.939 -41.752  0.00  0.00    -0.057 A 
ATOM     13  C   UNL A   1      46.297 -18.967 -41.203  0.00  0.00    -0.028 A 
ATOM     14  C   UNL A   1      47.015 -20.176 -41.212  0.00  0.00    -0.054 A 
ENDBRANCH   7  13
ENDBRANCH   1   7
BRANCH   5  15
ATOM     15  C   UNL A   1      45.810 -19.945 -36.326  0.00  0.00    +0.050 C 
BRANCH  15  16
ATOM     16  N   UNL A   1      44.362 -19.964 -36.146  0.00  0.00    -0.339 N 
ATOM     17  C   UNL A   1      43.446 -20.374 -37.087  0.00  0.00    +0.023 A 
ATOM     18  C   UNL A   1      42.182 -20.211 -36.551  0.00  0.00    -0.019 A 
ATOM     19  C   UNL A   1      42.330 -19.705 -35.233  0.00  0.00    +0.003 A 
ATOM     20  C   UNL A   1      41.418 -19.354 -34.217  0.00  0.00    -0.052 A 
ATOM     21  C   UNL A   1      41.894 -18.894 -32.987  0.00  0.00    -0.061 A 
ATOM     22  C   UNL A   1      43.261 -18.782 -32.757  0.00  0.00    -0.060 A 
ATOM     23  C   UNL A   1      44.187 -19.119 -33.749  0.00  0.00    -0.038 A 
ATOM     24  C   UNL A   1      43.703 -19.576 -34.989  0.00  0.00    +0.050 A 
ATOM     25  C   UNL A   1      40.932 -20.538 -37.300  0.00  0.00    -0.025 C 
ATOM     26  C   UNL A   1      41.229 -21.438 -38.512  0.00  0.00    -0.049 C 
ATOM     27  C   UNL A   1      42.459 -20.954 -39.296  0.00  0.00    -0.047 C 
ATOM     28  C   UNL A   1      43.734 -20.951 -38.433  0.00  0.00    -0.012 C 
ENDBRANCH  15  16
ENDBRANCH   5  15
TORSDOF 4
ENDMDL
MODEL 20
REMARK VINA RESULT:    -6.204     18.641     22.361
REMARK INTER + INTRA:          -9.787
REMARK INTER:                  -7.771
REMARK INTRA:                  -2.016
REMARK UNBOUND:                -2.132
REMARK  Name = cpd355.pdb
REMARK  5 active torsions:
REMARK  status: ('A' for Active; 'I' for Inactive)
REMARK    1  A    between atoms: C_1  and  C_2
REMARK    2  A    between atoms: C_6  and  C_7
REMARK    3  A    between atoms: C_7  and  N_8
REMARK    4  A    between atoms: C_12  and  C_13
REMARK    5  A    between atoms: C_13  and  N_14
REMARK                            x       y       z     vdW  Elec       q    Type
REMARK                         _______ _______ _______ _____ _____    ______ ____
ROOT
ATOM      1  N   UNL A   1      43.141 -20.323 -35.962  0.00  0.00    -0.349 N 
ATOM      2  C   UNL A   1      41.974 -20.708 -35.393  0.00  0.00    +0.005 A 
ATOM      3  C   UNL A   1      40.916 -21.144 -36.177  0.00  0.00    -0.045 A 
ATOM      4  C   UNL A   1      41.055 -21.159 -37.559  0.00  0.00    -0.054 A 
ATOM      5  C   UNL A   1      42.247 -20.731 -38.147  0.00  0.00    -0.012 A 
ATOM      6  C   UNL A   1      43.289 -20.330 -37.309  0.00  0.00    +0.010 A 
ENDROOT
BRANCH   1   7
ATOM      7  C   UNL A   1      44.250 -19.824 -35.104  0.00  0.00    +0.048 C 
BRANCH   7  13
ATOM      8  C   UNL A   1      46.041 -15.413 -36.756  0.00  0.00    -0.040 C 
ATOM      9  C   UNL A   1      46.150 -16.908 -36.665  0.00  0.00    -0.050 A 
ATOM     10  C   UNL A   1      47.165 -17.582 -37.352  0.00  0.00    -0.059 A 
ATOM     11  C   UNL A   1      47.241 -18.973 -37.312  0.00  0.00    -0.061 A 
ATOM     12  C   UNL A   1      46.301 -19.707 -36.588  0.00  0.00    -0.057 A 
ATOM     13  C   UNL A   1      45.277 -19.051 -35.889  0.00  0.00    -0.028 A 
ATOM     14  C   UNL A   1      45.201 -17.649 -35.950  0.00  0.00    -0.054 A 
ENDBRANCH   7  13
ENDBRANCH   1   7
BRANCH   5  15
ATOM     15  C   UNL A   1      42.416 -20.685 -39.651  0.00  0.00    +0.050 C 
BRANCH  15  16
ATOM     16  N   UNL A   1      43.635 -19.979 -40.032  0.00  0.00    -0.339 N 
ATOM     17  C   UNL A   1      43.778 -18.613 -40.102  0.00  0.00    +0.023 A 
ATOM     18  C   UNL A   1      45.063 -18.340 -40.531  0.00  0.00    -0.019 A 
ATOM     19  C   UNL A   1      45.735 -19.578 -40.709  0.00  0.00    +0.003 A 
ATOM     20  C   UNL A   1      47.038 -19.929 -41.117  0.00  0.00    -0.052 A 
ATOM     21  C   UNL A   1      47.409 -21.274 -41.170  0.00  0.00    -0.061 A 
ATOM     22  C   UNL A   1      46.503 -22.270 -40.823  0.00  0.00    -0.060 A 
ATOM     23  C   UNL A   1      45.203 -21.950 -40.419  0.00  0.00    -0.038 A 
ATOM     24  C   UNL A   1      44.831 -20.593 -40.372  0.00  0.00    +0.050 A 
ATOM     25  C   UNL A   1      45.574 -16.952 -40.742  0.00  0.00    -0.025 C 
ATOM     26  C   UNL A   1      44.676 -15.917 -40.043  0.00  0.00    -0.049 C 
ATOM     27  C   UNL A   1      43.184 -16.203 -40.276  0.00  0.00    -0.047 C 
ATOM     28  C   UNL A   1      42.765 -17.581 -39.733  0.00  0.00    -0.012 C 
ENDBRANCH  15  16
ENDBRANCH   5  15
TORSDOF 4
ENDMDL
