REMARK  Name = cpd188.pdb
REMARK  11 active torsions:
REMARK  status: ('A' for Active; 'I' for Inactive)
REMARK    1  A    between atoms: C_1  and  C_2
REMARK    2  A    between atoms: C_2  and  C_3
REMARK    3  A    between atoms: C_2  and  N_34
REMARK    4  A    between atoms: C_12  and  N_13
REMARK    5  A    between atoms: N_13  and  C_14
REMARK    6  A    between atoms: C_15  and  C_17
REMARK    7  A    between atoms: C_18  and  C_19
REMARK    8  A    between atoms: C_27  and  C_28
REMARK    9  A    between atoms: C_32  and  C_33
REMARK   10  A    between atoms: N_34  and  C_35
REMARK   11  A    between atoms: N_34  and  C_36
REMARK                            x       y       z     vdW  Elec       q    Type
REMARK                         _______ _______ _______ _____ _____    ______ ____
ROOT
ATOM      1  C   UNL     1       2.092  -1.318  -0.386  0.00  0.00    -0.020 C 
ATOM      2  C   UNL     1       2.773  -0.180   0.378  0.00  0.00    -0.048 C 
ATOM      3  C   UNL     1       2.241   1.059  -0.325  0.00  0.00    -0.049 C 
ATOM      4  C   UNL     1       0.733   0.780  -0.517  0.00  0.00    -0.032 C 
ATOM      5  C   UNL     1      -0.082   1.262   0.708  0.00  0.00    -0.034 C 
ATOM      6  C   UNL     1      -0.135   2.801   0.815  0.00  0.00    -0.049 C 
ATOM      7  C   UNL     1      -1.178   3.449  -0.090  0.00  0.00    -0.049 C 
ATOM      8  C   UNL     1      -2.570   2.878   0.196  0.00  0.00    -0.034 C 
ATOM      9  C   UNL     1      -3.657   3.656  -0.570  0.00  0.00    -0.031 C 
ATOM     10  C   UNL     1      -5.043   2.973  -0.519  0.00  0.00    +0.026 C 
ATOM     11  C   UNL     1      -5.121   1.922   0.594  0.00  0.00    -0.034 C 
ATOM     12  C   UNL     1      -4.037   0.840   0.483  0.00  0.00    -0.045 C 
ATOM     13  C   UNL     1      -2.641   1.339  -0.023  0.00  0.00    -0.026 C 
ATOM     14  C   UNL     1      -2.536   0.988  -1.524  0.00  0.00    -0.059 C 
ATOM     15  C   UNL     1      -1.499   0.663   0.833  0.00  0.00    -0.032 C 
ATOM     16  C   UNL     1      -1.425  -0.865   0.787  0.00  0.00    -0.049 C 
ATOM     17  C   UNL     1      -0.598  -1.486  -0.333  0.00  0.00    -0.047 C 
ATOM     18  C   UNL     1       0.672  -0.757  -0.832  0.00  0.00    -0.025 C 
ATOM     19  C   UNL     1       0.645  -0.914  -2.390  0.00  0.00    -0.059 C 
ENDROOT
BRANCH  10  20
ATOM     20  N   UNL     1      -6.185   3.918  -0.440  0.00  0.00    -0.298 N 
ATOM     21  C   UNL     1      -6.107   5.020   0.512  0.00  0.00    +0.004 C 
ATOM     22  C   UNL     1      -7.401   3.753  -1.101  0.00  0.00    +0.239 C 
ATOM     23  O   UNL     1      -8.348   4.528  -0.996  0.00  0.00    -0.271 OA
BRANCH  22  24
ATOM     24  C   UNL     1      -7.520   2.580  -1.997  0.00  0.00    +0.001 C 
ATOM     25  C   UNL     1      -8.431   1.601  -1.880  0.00  0.00    -0.050 C 
BRANCH  25  26
ATOM     26  C   UNL     1      -9.474   1.413  -0.857  0.00  0.00    -0.025 A 
ATOM     27  C   UNL     1     -10.685   0.823  -1.247  0.00  0.00    -0.055 A 
ATOM     28  C   UNL     1     -11.695   0.570  -0.314  0.00  0.00    -0.061 A 
ATOM     29  C   UNL     1     -11.502   0.895   1.025  0.00  0.00    -0.062 A 
ATOM     30  C   UNL     1     -10.299   1.468   1.431  0.00  0.00    -0.061 A 
ATOM     31  C   UNL     1      -9.289   1.718   0.496  0.00  0.00    -0.055 A 
ENDBRANCH  25  26
ENDBRANCH  22  24
ENDBRANCH  10  20
BRANCH   1  33
ATOM     32  C   UNL     1       3.501  -3.389  -0.558  0.00  0.00    -0.049 C 
ATOM     33  C   UNL     1       2.290  -2.767   0.190  0.00  0.00    +0.010 C 
BRANCH  33  34
ATOM     34  N   UNL     1       2.484  -2.847   1.663  0.00  0.00    -0.305 N 
ATOM     35  C   UNL     1       1.281  -2.490   2.411  0.00  0.00    -0.013 C 
ATOM     36  C   UNL     1       2.930  -4.167   2.126  0.00  0.00    -0.013 C 
ATOM     37  H   UNL     1       3.221  -2.166   1.847  0.00  0.00    +0.000 HD
ENDBRANCH  33  34
ENDBRANCH   1  33
TORSDOF 5
