@<TRIPOS>MOLECULE
*****
 36 40 0 0 0
SMALL
GASTEIGER

@<TRIPOS>ATOM
      1 C           1.6998   -1.9611    0.0000 C.3     1  UNL1        0.0173
      2 C           0.8505   -1.4711    0.0000 C.3     1  UNL1        0.0576
      3 C           0.8502   -0.4905    0.0000 C.3     1  UNL1        0.0147
      4 C           1.6990    0.0005    0.0000 C.3     1  UNL1        0.0013
      5 C           1.6987    0.9814    0.0000 C.3     1  UNL1        0.0000
      6 C          -0.0003    0.9809    0.0000 C.3     1  UNL1        0.0000
      7 C          -0.8505    1.4715    0.0000 C.3     1  UNL1        0.0000
      8 C          -0.8508    2.4530    0.0000 C.3     1  UNL1        0.0000
      9 C          -1.7010    2.9435    0.0000 C.3     1  UNL1        0.0001
     10 C          -2.5509    2.4525    0.0000 C.3     1  UNL1        0.0016
     11 C          -3.4005    2.9430    0.0000 C.3     1  UNL1        0.0198
     12 C          -4.2499    2.4520    0.0000 C.3     1  UNL1        0.0757
     13 N          -5.0996    2.9423    0.0000 N.am    1  UNL1       -0.2760
     14 C          -5.4030    3.8753    0.0000 C.3     1  UNL1        0.1151
     15 C          -5.7559    2.2131    0.0000 C.2     1  UNL1        0.2492
     16 O          -6.7155    2.4168    0.0000 O.2     1  UNL1       -0.2699
     17 C          -5.4524    1.2801    0.0000 C.2     1  UNL1        0.0579
     18 C          -6.1087    0.5509    0.0000 C.2     1  UNL1        0.0047
     19 C          -7.0683    0.7546    0.0000 C.ar    1  UNL1        0.0001
     20 C          -7.7246    0.0253    0.0000 C.ar    1  UNL1        0.0000
     21 C          -8.6843    0.2290    0.0000 C.ar    1  UNL1        0.0000
     22 C          -8.9877    1.1620    0.0000 C.ar    1  UNL1        0.0000
     23 C          -8.3314    1.8912    0.0000 C.ar    1  UNL1        0.0000
     24 C          -7.3718    1.6875    0.0000 C.ar    1  UNL1        0.0000
     25 C          -4.2496    1.4705    0.0000 C.3     1  UNL1        0.0198
     26 C          -3.4000    0.9800    0.0000 C.3     1  UNL1        0.0017
     27 C          -2.5506    1.4710    0.0000 C.3     1  UNL1        0.0001
     28 C          -2.5503    0.4710    0.0000 C.3     1  UNL1        0.0000
     29 C          -1.7004    0.9805    0.0000 C.3     1  UNL1        0.0000
     30 C          -1.7001   -0.0005    0.0000 C.3     1  UNL1        0.0000
     31 C          -0.8499   -0.4910    0.0000 C.3     1  UNL1        0.0000
     32 C          -0.0000   -0.0000    0.0000 C.3     1  UNL1        0.0012
     33 C           0.0003   -1.0000    0.0000 C.3     1  UNL1        0.0000
     34 N           0.0015   -1.9616    0.0000 N.3     1  UNL1       -0.2716
     35 C          -0.8478   -1.4715    0.0000 C.3     1  UNL1        0.0896
     36 C           0.0017   -2.9421    0.0000 C.3     1  UNL1        0.0896
@<TRIPOS>BOND
     1     1     2    1
     2     2     3    1
     3     3     4    1
     4     4     5    1
     5     5     6    1
     6     6     7    1
     7     7     8    1
     8     8     9    1
     9     9    10    1
    10    10    11    1
    11    11    12    1
    12    12    13    1
    13    13    14    1
    14    13    15   am
    15    15    16    2
    16    15    17    1
    17    17    18    2
    18    18    19    1
    19    19    20   ar
    20    20    21   ar
    21    21    22   ar
    22    22    23   ar
    23    23    24   ar
    24    19    24   ar
    25    12    25    1
    26    25    26    1
    27    26    27    1
    28    10    27    1
    29    27    28    1
    30    27    29    1
    31     7    29    1
    32    29    30    1
    33    30    31    1
    34    31    32    1
    35     3    32    1
    36     6    32    1
    37    32    33    1
    38     2    34    1
    39    34    35    1
    40    34    36    1
