@<TRIPOS>MOLECULE
*****
 26 29 0 0 0
SMALL
GASTEIGER

@<TRIPOS>ATOM
      1 C           0.0000   -1.0000    0.0000 C.ar    1  UNL1        0.0000
      2 C          -0.8660   -1.5000    0.0000 C.ar    1  UNL1        0.0000
      3 C          -1.7321   -1.0000    0.0000 C.ar    1  UNL1        0.0016
      4 C          -1.7321   -0.0000    0.0000 C.ar    1  UNL1        0.0194
      5 C          -2.5981    0.5000    0.0000 C.ar    1  UNL1        0.1030
      6 C          -3.4641   -0.0000    0.0000 C.ar    1  UNL1        0.0239
      7 C          -4.3301    0.5000    0.0000 C.ar    1  UNL1        0.0392
      8 C          -4.3301    1.5000    0.0000 C.ar    1  UNL1        0.1693
      9 N          -5.1962    2.0000    0.0000 N.pl3   1  UNL1       -0.2188
     10 C          -6.0622    1.5000    0.0000 C.3     1  UNL1        0.1153
     11 C          -6.9282    2.0000    0.0000 C.3     1  UNL1        0.0407
     12 C          -7.7942    1.5000    0.0000 C.3     1  UNL1        0.0742
     13 N          -8.6603    2.0000    0.0000 N.3     1  UNL1       -0.2686
     14 C          -9.5263    1.5000    0.0000 C.3     1  UNL1        0.0771
     15 C         -10.3923    2.0000    0.0000 C.3     1  UNL1        0.0434
     16 C         -10.3923    3.0000    0.0000 C.ar    1  UNL1       -0.0234
     17 C         -11.2583    3.5000    0.0000 C.ar    1  UNL1       -0.0045
     18 C         -11.2583    4.5000    0.0000 C.ar    1  UNL1       -0.0003
     19 C         -10.3923    5.0000    0.0000 C.ar    1  UNL1       -0.0003
     20 C          -9.5263    4.5000    0.0000 C.ar    1  UNL1       -0.0032
     21 C          -9.5263    3.5000    0.0000 C.ar    1  UNL1       -0.0101
     22 C          -8.6603    3.0000    0.0000 C.3     1  UNL1        0.0988
     23 N          -3.4641    2.0000    0.0000 N.ar    1  UNL1       -0.1314
     24 N          -2.5981    1.5000    0.0000 N.ar    1  UNL1       -0.1467
     25 C          -0.8660    0.5000    0.0000 C.ar    1  UNL1        0.0016
     26 C          -0.0000   -0.0000    0.0000 C.ar    1  UNL1        0.0000
@<TRIPOS>BOND
     1     1     2   ar
     2     2     3   ar
     3     3     4   ar
     4     4     5    1
     5     5     6   ar
     6     6     7   ar
     7     7     8   ar
     8     8     9    1
     9     9    10    1
    10    10    11    1
    11    11    12    1
    12    12    13    1
    13    13    14    1
    14    14    15    1
    15    15    16    1
    16    16    17   ar
    17    17    18   ar
    18    18    19   ar
    19    19    20   ar
    20    20    21   ar
    21    16    21   ar
    22    21    22    1
    23    13    22    1
    24     8    23   ar
    25    23    24   ar
    26     5    24   ar
    27     4    25   ar
    28    25    26   ar
    29     1    26   ar
