MODEL 1
REMARK VINA RESULT:    -6.923      0.000      0.000
REMARK INTER + INTRA:         -11.603
REMARK INTER:                  -9.351
REMARK INTRA:                  -2.253
REMARK UNBOUND:                -2.253
REMARK  Name = cpd251.pdb
REMARK  6 active torsions:
REMARK  status: ('A' for Active; 'I' for Inactive)
REMARK    1  A    between atoms: C_4  and  C_5
REMARK    2  A    between atoms: C_8  and  N_9
REMARK    3  A    between atoms: N_9  and  C_10
REMARK    4  A    between atoms: C_10  and  C_11
REMARK    5  A    between atoms: C_11  and  C_12
REMARK    6  A    between atoms: C_12  and  N_13
REMARK                            x       y       z     vdW  Elec       q    Type
REMARK                         _______ _______ _______ _____ _____    ______ ____
ROOT
ATOM      1  N   UNL     1      34.041 -39.733 -27.569  0.00  0.00    -0.328 N 
ATOM      2  H   UNL     1      33.943 -39.917 -26.607  0.00  0.00    +0.000 HD
ENDROOT
BRANCH   1   6
ATOM      3  C   UNL     1      37.258 -37.725 -29.277  0.00  0.00    +0.093 A 
ATOM      4  C   UNL     1      36.586 -37.126 -28.221  0.00  0.00    -0.031 A 
ATOM      5  C   UNL     1      35.513 -37.790 -27.622  0.00  0.00    -0.018 A 
ATOM      6  C   UNL     1      35.135 -39.036 -28.088  0.00  0.00    +0.141 A 
ATOM      7  N   UNL     1      35.795 -39.593 -29.118  0.00  0.00    -0.134 NA
ATOM      8  N   UNL     1      36.862 -38.943 -29.710  0.00  0.00    -0.147 NA
BRANCH   3  12
ATOM      9  C   UNL     1      40.568 -35.945 -31.386  0.00  0.00    -0.062 A 
ATOM     10  C   UNL     1      39.265 -35.555 -31.683  0.00  0.00    -0.061 A 
ATOM     11  C   UNL     1      38.187 -36.126 -30.997  0.00  0.00    -0.053 A 
ATOM     12  C   UNL     1      38.383 -37.101 -30.001  0.00  0.00    +0.002 A 
ATOM     13  C   UNL     1      39.713 -37.468 -29.717  0.00  0.00    -0.053 A 
ATOM     14  C   UNL     1      40.793 -36.901 -30.401  0.00  0.00    -0.061 A 
ENDBRANCH   3  12
ENDBRANCH   1   6
BRANCH   1  15
ATOM     15  C   UNL     1      33.052 -40.169 -28.550  0.00  0.00    +0.012 C 
BRANCH  15  16
ATOM     16  C   UNL     1      32.226 -38.960 -28.998  0.00  0.00    -0.025 C 
BRANCH  16  17
ATOM     17  C   UNL     1      32.337 -38.748 -30.512  0.00  0.00    +0.001 C 
BRANCH  17  18
ATOM     18  N   UNL     1      32.862 -37.420 -30.870  0.00  0.00    -0.298 N 
ATOM     19  C   UNL     1      34.204 -37.538 -31.464  0.00  0.00    +0.003 C 
ATOM     20  C   UNL     1      34.663 -36.195 -32.045  0.00  0.00    -0.015 C 
ATOM     21  C   UNL     1      34.508 -35.064 -31.063  0.00  0.00    -0.042 A 
ATOM     22  C   UNL     1      35.178 -33.851 -31.270  0.00  0.00    -0.058 A 
ATOM     23  C   UNL     1      35.009 -32.792 -30.379  0.00  0.00    -0.061 A 
ATOM     24  C   UNL     1      34.165 -32.935 -29.281  0.00  0.00    -0.061 A 
ATOM     25  C   UNL     1      33.485 -34.135 -29.074  0.00  0.00    -0.057 A 
ATOM     26  C   UNL     1      33.639 -35.205 -29.968  0.00  0.00    -0.030 A 
ATOM     27  C   UNL     1      32.917 -36.513 -29.704  0.00  0.00    +0.024 C 
ATOM     28  H   UNL     1      32.218 -37.019 -31.552  0.00  0.00    +0.000 HD
ENDBRANCH  17  18
ENDBRANCH  16  17
ENDBRANCH  15  16
ENDBRANCH   1  15
TORSDOF 6
ENDMDL
MODEL 2
REMARK VINA RESULT:    -6.911      1.531      2.240
REMARK INTER + INTRA:         -11.588
REMARK INTER:                 -10.100
REMARK INTRA:                  -1.488
REMARK UNBOUND:                -2.253
REMARK  Name = cpd251.pdb
REMARK  6 active torsions:
REMARK  status: ('A' for Active; 'I' for Inactive)
REMARK    1  A    between atoms: C_4  and  C_5
REMARK    2  A    between atoms: C_8  and  N_9
REMARK    3  A    between atoms: N_9  and  C_10
REMARK    4  A    between atoms: C_10  and  C_11
REMARK    5  A    between atoms: C_11  and  C_12
REMARK    6  A    between atoms: C_12  and  N_13
REMARK                            x       y       z     vdW  Elec       q    Type
REMARK                         _______ _______ _______ _____ _____    ______ ____
ROOT
ATOM      1  N   UNL     1      34.070 -39.188 -28.206  0.00  0.00    -0.328 N 
ATOM      2  H   UNL     1      33.742 -40.063 -28.517  0.00  0.00    +0.000 HD
ENDROOT
BRANCH   1   6
ATOM      3  C   UNL     1      37.535 -37.461 -29.725  0.00  0.00    +0.093 A 
ATOM      4  C   UNL     1      37.377 -37.532 -28.347  0.00  0.00    -0.031 A 
ATOM      5  C   UNL     1      36.228 -38.123 -27.816  0.00  0.00    -0.018 A 
ATOM      6  C   UNL     1      35.264 -38.630 -28.668  0.00  0.00    +0.141 A 
ATOM      7  N   UNL     1      35.434 -38.542 -29.999  0.00  0.00    -0.134 NA
ATOM      8  N   UNL     1      36.573 -37.964 -30.530  0.00  0.00    -0.147 NA
BRANCH   3  12
ATOM      9  C   UNL     1      40.937 -35.667 -31.668  0.00  0.00    -0.062 A 
ATOM     10  C   UNL     1      39.651 -35.245 -31.992  0.00  0.00    -0.061 A 
ATOM     11  C   UNL     1      38.543 -35.820 -31.359  0.00  0.00    -0.053 A 
ATOM     12  C   UNL     1      38.692 -36.832 -30.392  0.00  0.00    +0.002 A 
ATOM     13  C   UNL     1      40.006 -37.231 -30.079  0.00  0.00    -0.053 A 
ATOM     14  C   UNL     1      41.115 -36.659 -30.710  0.00  0.00    -0.061 A 
ENDBRANCH   3  12
ENDBRANCH   1   6
BRANCH   1  15
ATOM     15  C   UNL     1      33.339 -38.387 -27.229  0.00  0.00    +0.012 C 
BRANCH  15  16
ATOM     16  C   UNL     1      32.322 -37.510 -27.962  0.00  0.00    -0.025 C 
BRANCH  16  17
ATOM     17  C   UNL     1      32.050 -36.215 -27.188  0.00  0.00    +0.001 C 
BRANCH  17  18
ATOM     18  N   UNL     1      32.613 -35.023 -27.844  0.00  0.00    -0.298 N 
ATOM     19  C   UNL     1      31.566 -34.297 -28.582  0.00  0.00    +0.003 C 
ATOM     20  C   UNL     1      32.088 -32.942 -29.077  0.00  0.00    -0.015 C 
ATOM     21  C   UNL     1      33.399 -33.067 -29.807  0.00  0.00    -0.042 A 
ATOM     22  C   UNL     1      33.857 -32.022 -30.620  0.00  0.00    -0.058 A 
ATOM     23  C   UNL     1      35.087 -32.122 -31.270  0.00  0.00    -0.061 A 
ATOM     24  C   UNL     1      35.869 -33.262 -31.106  0.00  0.00    -0.061 A 
ATOM     25  C   UNL     1      35.426 -34.302 -30.289  0.00  0.00    -0.057 A 
ATOM     26  C   UNL     1      34.195 -34.209 -29.621  0.00  0.00    -0.030 A 
ATOM     27  C   UNL     1      33.717 -35.367 -28.766  0.00  0.00    +0.024 C 
ATOM     28  H   UNL     1      32.990 -34.428 -27.107  0.00  0.00    +0.000 HD
ENDBRANCH  17  18
ENDBRANCH  16  17
ENDBRANCH  15  16
ENDBRANCH   1  15
TORSDOF 6
ENDMDL
MODEL 3
REMARK VINA RESULT:    -6.721      2.808      6.866
REMARK INTER + INTRA:         -11.332
REMARK INTER:                 -10.474
REMARK INTRA:                  -0.857
REMARK UNBOUND:                -2.253
REMARK  Name = cpd251.pdb
REMARK  6 active torsions:
REMARK  status: ('A' for Active; 'I' for Inactive)
REMARK    1  A    between atoms: C_4  and  C_5
REMARK    2  A    between atoms: C_8  and  N_9
REMARK    3  A    between atoms: N_9  and  C_10
REMARK    4  A    between atoms: C_10  and  C_11
REMARK    5  A    between atoms: C_11  and  C_12
REMARK    6  A    between atoms: C_12  and  N_13
REMARK                            x       y       z     vdW  Elec       q    Type
REMARK                         _______ _______ _______ _____ _____    ______ ____
ROOT
ATOM      1  N   UNL     1      33.458 -35.537 -30.172  0.00  0.00    -0.328 N 
ATOM      2  H   UNL     1      33.010 -36.026 -30.900  0.00  0.00    +0.000 HD
ENDROOT
BRANCH   1   6
ATOM      3  C   UNL     1      33.667 -37.092 -26.321  0.00  0.00    +0.093 A 
ATOM      4  C   UNL     1      34.511 -37.610 -27.293  0.00  0.00    -0.031 A 
ATOM      5  C   UNL     1      34.469 -37.091 -28.589  0.00  0.00    -0.018 A 
ATOM      6  C   UNL     1      33.587 -36.068 -28.886  0.00  0.00    +0.141 A 
ATOM      7  N   UNL     1      32.772 -35.587 -27.931  0.00  0.00    -0.134 NA
ATOM      8  N   UNL     1      32.815 -36.093 -26.645  0.00  0.00    -0.147 NA
BRANCH   3  12
ATOM      9  C   UNL     1      33.469 -38.489 -22.249  0.00  0.00    -0.062 A 
ATOM     10  C   UNL     1      33.394 -39.399 -23.299  0.00  0.00    -0.061 A 
ATOM     11  C   UNL     1      33.464 -38.951 -24.623  0.00  0.00    -0.053 A 
ATOM     12  C   UNL     1      33.606 -37.585 -24.930  0.00  0.00    +0.002 A 
ATOM     13  C   UNL     1      33.689 -36.690 -23.846  0.00  0.00    -0.053 A 
ATOM     14  C   UNL     1      33.618 -37.134 -22.522  0.00  0.00    -0.061 A 
ENDBRANCH   3  12
ENDBRANCH   1   6
BRANCH   1  15
ATOM     15  C   UNL     1      34.030 -34.208 -30.363  0.00  0.00    +0.012 C 
BRANCH  15  16
ATOM     16  C   UNL     1      35.547 -34.336 -30.529  0.00  0.00    -0.025 C 
BRANCH  16  17
ATOM     17  C   UNL     1      35.897 -35.225 -31.728  0.00  0.00    +0.001 C 
BRANCH  17  18
ATOM     18  N   UNL     1      37.078 -36.071 -31.491  0.00  0.00    -0.298 N 
ATOM     19  C   UNL     1      37.382 -36.143 -30.052  0.00  0.00    +0.003 C 
ATOM     20  C   UNL     1      38.461 -37.196 -29.775  0.00  0.00    -0.015 C 
ATOM     21  C   UNL     1      39.665 -37.029 -30.663  0.00  0.00    -0.042 A 
ATOM     22  C   UNL     1      40.875 -37.656 -30.339  0.00  0.00    -0.058 A 
ATOM     23  C   UNL     1      41.982 -37.529 -31.180  0.00  0.00    -0.061 A 
ATOM     24  C   UNL     1      41.884 -36.783 -32.351  0.00  0.00    -0.061 A 
ATOM     25  C   UNL     1      40.679 -36.165 -32.687  0.00  0.00    -0.057 A 
ATOM     26  C   UNL     1      39.556 -36.293 -31.855  0.00  0.00    -0.030 A 
ATOM     27  C   UNL     1      38.267 -35.584 -32.222  0.00  0.00    +0.024 C 
ATOM     28  H   UNL     1      36.851 -37.003 -31.841  0.00  0.00    +0.000 HD
ENDBRANCH  17  18
ENDBRANCH  16  17
ENDBRANCH  15  16
ENDBRANCH   1  15
TORSDOF 6
ENDMDL
MODEL 4
REMARK VINA RESULT:    -6.650      2.975      5.666
REMARK INTER + INTRA:         -11.236
REMARK INTER:                  -8.013
REMARK INTRA:                  -3.223
REMARK UNBOUND:                -2.253
REMARK  Name = cpd251.pdb
REMARK  6 active torsions:
REMARK  status: ('A' for Active; 'I' for Inactive)
REMARK    1  A    between atoms: C_4  and  C_5
REMARK    2  A    between atoms: C_8  and  N_9
REMARK    3  A    between atoms: N_9  and  C_10
REMARK    4  A    between atoms: C_10  and  C_11
REMARK    5  A    between atoms: C_11  and  C_12
REMARK    6  A    between atoms: C_12  and  N_13
REMARK                            x       y       z     vdW  Elec       q    Type
REMARK                         _______ _______ _______ _____ _____    ______ ____
ROOT
ATOM      1  N   UNL     1      32.047 -30.704 -30.726  0.00  0.00    -0.328 N 
ATOM      2  H   UNL     1      32.323 -29.781 -30.929  0.00  0.00    +0.000 HD
ENDROOT
BRANCH   1   6
ATOM      3  C   UNL     1      34.664 -33.869 -30.072  0.00  0.00    +0.093 A 
ATOM      4  C   UNL     1      34.838 -33.087 -31.206  0.00  0.00    -0.031 A 
ATOM      5  C   UNL     1      33.980 -32.009 -31.436  0.00  0.00    -0.018 A 
ATOM      6  C   UNL     1      32.970 -31.735 -30.532  0.00  0.00    +0.141 A 
ATOM      7  N   UNL     1      32.815 -32.511 -29.445  0.00  0.00    -0.134 NA
ATOM      8  N   UNL     1      33.666 -33.576 -29.209  0.00  0.00    -0.147 NA
BRANCH   3  12
ATOM      9  C   UNL     1      37.038 -37.333 -29.104  0.00  0.00    -0.062 A 
ATOM     10  C   UNL     1      37.376 -36.545 -30.200  0.00  0.00    -0.061 A 
ATOM     11  C   UNL     1      36.612 -35.416 -30.515  0.00  0.00    -0.053 A 
ATOM     12  C   UNL     1      35.491 -35.049 -29.747  0.00  0.00    +0.002 A 
ATOM     13  C   UNL     1      35.180 -35.861 -28.639  0.00  0.00    -0.053 A 
ATOM     14  C   UNL     1      35.940 -36.991 -28.322  0.00  0.00    -0.061 A 
ENDBRANCH   3  12
ENDBRANCH   1   6
BRANCH   1  15
ATOM     15  C   UNL     1      30.644 -31.088 -30.607  0.00  0.00    +0.012 C 
BRANCH  15  16
ATOM     16  C   UNL     1      30.275 -32.002 -31.779  0.00  0.00    -0.025 C 
BRANCH  16  17
ATOM     17  C   UNL     1      29.327 -33.120 -31.329  0.00  0.00    +0.001 C 
BRANCH  17  18
ATOM     18  N   UNL     1      29.992 -34.428 -31.217  0.00  0.00    -0.298 N 
ATOM     19  C   UNL     1      30.287 -34.738 -29.808  0.00  0.00    +0.003 C 
ATOM     20  C   UNL     1      30.769 -36.187 -29.658  0.00  0.00    -0.015 C 
ATOM     21  C   UNL     1      31.877 -36.523 -30.621  0.00  0.00    -0.042 A 
ATOM     22  C   UNL     1      32.673 -37.657 -30.414  0.00  0.00    -0.058 A 
ATOM     23  C   UNL     1      33.677 -37.988 -31.323  0.00  0.00    -0.061 A 
ATOM     24  C   UNL     1      33.887 -37.194 -32.448  0.00  0.00    -0.061 A 
ATOM     25  C   UNL     1      33.091 -36.071 -32.667  0.00  0.00    -0.057 A 
ATOM     26  C   UNL     1      32.071 -35.732 -31.766  0.00  0.00    -0.030 A 
ATOM     27  C   UNL     1      31.241 -34.486 -32.006  0.00  0.00    +0.024 C 
ATOM     28  H   UNL     1      29.347 -35.123 -31.594  0.00  0.00    +0.000 HD
ENDBRANCH  17  18
ENDBRANCH  16  17
ENDBRANCH  15  16
ENDBRANCH   1  15
TORSDOF 6
ENDMDL
MODEL 5
REMARK VINA RESULT:    -6.619      2.024      4.329
REMARK INTER + INTRA:         -11.194
REMARK INTER:                  -7.907
REMARK INTRA:                  -3.287
REMARK UNBOUND:                -2.253
REMARK  Name = cpd251.pdb
REMARK  6 active torsions:
REMARK  status: ('A' for Active; 'I' for Inactive)
REMARK    1  A    between atoms: C_4  and  C_5
REMARK    2  A    between atoms: C_8  and  N_9
REMARK    3  A    between atoms: N_9  and  C_10
REMARK    4  A    between atoms: C_10  and  C_11
REMARK    5  A    between atoms: C_11  and  C_12
REMARK    6  A    between atoms: C_12  and  N_13
REMARK                            x       y       z     vdW  Elec       q    Type
REMARK                         _______ _______ _______ _____ _____    ______ ____
ROOT
ATOM      1  N   UNL     1      31.141 -34.575 -28.613  0.00  0.00    -0.328 N 
ATOM      2  H   UNL     1      30.840 -33.968 -27.899  0.00  0.00    +0.000 HD
ENDROOT
BRANCH   1   6
ATOM      3  C   UNL     1      35.019 -36.060 -28.835  0.00  0.00    +0.093 A 
ATOM      4  C   UNL     1      34.618 -35.109 -29.764  0.00  0.00    -0.031 A 
ATOM      5  C   UNL     1      33.325 -34.585 -29.697  0.00  0.00    -0.018 A 
ATOM      6  C   UNL     1      32.462 -35.019 -28.707  0.00  0.00    +0.141 A 
ATOM      7  N   UNL     1      32.870 -35.948 -27.824  0.00  0.00    -0.134 NA
ATOM      8  N   UNL     1      34.151 -36.465 -27.882  0.00  0.00    -0.147 NA
BRANCH   3  12
ATOM      9  C   UNL     1      38.880 -37.974 -28.803  0.00  0.00    -0.062 A 
ATOM     10  C   UNL     1      38.567 -37.061 -29.806  0.00  0.00    -0.061 A 
ATOM     11  C   UNL     1      37.317 -36.432 -29.818  0.00  0.00    -0.053 A 
ATOM     12  C   UNL     1      36.349 -36.702 -28.832  0.00  0.00    +0.002 A 
ATOM     13  C   UNL     1      36.700 -37.623 -27.825  0.00  0.00    -0.053 A 
ATOM     14  C   UNL     1      37.947 -38.254 -27.811  0.00  0.00    -0.061 A 
ENDBRANCH   3  12
ENDBRANCH   1   6
BRANCH   1  15
ATOM     15  C   UNL     1      30.237 -35.070 -29.646  0.00  0.00    +0.012 C 
BRANCH  15  16
ATOM     16  C   UNL     1      29.912 -36.539 -29.362  0.00  0.00    -0.025 C 
BRANCH  16  17
ATOM     17  C   UNL     1      30.320 -37.432 -30.540  0.00  0.00    +0.001 C 
BRANCH  17  18
ATOM     18  N   UNL     1      31.764 -37.717 -30.571  0.00  0.00    -0.298 N 
ATOM     19  C   UNL     1      32.238 -37.830 -31.961  0.00  0.00    +0.003 C 
ATOM     20  C   UNL     1      33.769 -37.900 -32.011  0.00  0.00    -0.015 C 
ATOM     21  C   UNL     1      34.325 -38.936 -31.071  0.00  0.00    -0.042 A 
ATOM     22  C   UNL     1      35.644 -39.388 -31.217  0.00  0.00    -0.058 A 
ATOM     23  C   UNL     1      36.170 -40.324 -30.327  0.00  0.00    -0.061 A 
ATOM     24  C   UNL     1      35.388 -40.807 -29.282  0.00  0.00    -0.061 A 
ATOM     25  C   UNL     1      34.079 -40.353 -29.122  0.00  0.00    -0.057 A 
ATOM     26  C   UNL     1      33.539 -39.405 -30.005  0.00  0.00    -0.030 A 
ATOM     27  C   UNL     1      32.102 -38.953 -29.833  0.00  0.00    +0.024 C 
ATOM     28  H   UNL     1      32.232 -36.936 -30.111  0.00  0.00    +0.000 HD
ENDBRANCH  17  18
ENDBRANCH  16  17
ENDBRANCH  15  16
ENDBRANCH   1  15
TORSDOF 6
ENDMDL
MODEL 6
REMARK VINA RESULT:    -6.616      2.512      5.038
REMARK INTER + INTRA:         -11.190
REMARK INTER:                  -8.161
REMARK INTRA:                  -3.028
REMARK UNBOUND:                -2.253
REMARK  Name = cpd251.pdb
REMARK  6 active torsions:
REMARK  status: ('A' for Active; 'I' for Inactive)
REMARK    1  A    between atoms: C_4  and  C_5
REMARK    2  A    between atoms: C_8  and  N_9
REMARK    3  A    between atoms: N_9  and  C_10
REMARK    4  A    between atoms: C_10  and  C_11
REMARK    5  A    between atoms: C_11  and  C_12
REMARK    6  A    between atoms: C_12  and  N_13
REMARK                            x       y       z     vdW  Elec       q    Type
REMARK                         _______ _______ _______ _____ _____    ______ ____
ROOT
ATOM      1  N   UNL     1      31.892 -31.531 -30.370  0.00  0.00    -0.328 N 
ATOM      2  H   UNL     1      31.792 -30.796 -29.723  0.00  0.00    +0.000 HD
ENDROOT
BRANCH   1   6
ATOM      3  C   UNL     1      35.095 -34.182 -30.295  0.00  0.00    +0.093 A 
ATOM      4  C   UNL     1      34.995 -33.291 -31.355  0.00  0.00    -0.031 A 
ATOM      5  C   UNL     1      33.936 -32.381 -31.391  0.00  0.00    -0.018 A 
ATOM      6  C   UNL     1      33.002 -32.379 -30.371  0.00  0.00    +0.141 A 
ATOM      7  N   UNL     1      33.114 -33.257 -29.359  0.00  0.00    -0.134 NA
ATOM      8  N   UNL     1      34.165 -34.155 -29.315  0.00  0.00    -0.147 NA
BRANCH   3  12
ATOM      9  C   UNL     1      38.216 -37.135 -29.959  0.00  0.00    -0.062 A 
ATOM     10  C   UNL     1      37.214 -37.071 -28.995  0.00  0.00    -0.061 A 
ATOM     11  C   UNL     1      36.196 -36.118 -29.102  0.00  0.00    -0.053 A 
ATOM     12  C   UNL     1      36.154 -35.204 -30.172  0.00  0.00    +0.002 A 
ATOM     13  C   UNL     1      37.175 -35.300 -31.137  0.00  0.00    -0.053 A 
ATOM     14  C   UNL     1      38.196 -36.250 -31.032  0.00  0.00    -0.061 A 
ENDBRANCH   3  12
ENDBRANCH   1   6
BRANCH   1  15
ATOM     15  C   UNL     1      30.889 -31.808 -31.394  0.00  0.00    +0.012 C 
BRANCH  15  16
ATOM     16  C   UNL     1      30.255 -33.173 -31.115  0.00  0.00    -0.025 C 
BRANCH  16  17
ATOM     17  C   UNL     1      30.560 -34.164 -32.245  0.00  0.00    +0.001 C 
BRANCH  17  18
ATOM     18  N   UNL     1      31.736 -35.006 -31.971  0.00  0.00    -0.298 N 
ATOM     19  C   UNL     1      32.215 -35.643 -33.209  0.00  0.00    +0.003 C 
ATOM     20  C   UNL     1      33.564 -36.336 -32.978  0.00  0.00    -0.015 C 
ATOM     21  C   UNL     1      33.545 -37.238 -31.773  0.00  0.00    -0.042 A 
ATOM     22  C   UNL     1      34.544 -38.205 -31.598  0.00  0.00    -0.058 A 
ATOM     23  C   UNL     1      34.547 -39.019 -30.466  0.00  0.00    -0.061 A 
ATOM     24  C   UNL     1      33.557 -38.868 -29.498  0.00  0.00    -0.061 A 
ATOM     25  C   UNL     1      32.566 -37.899 -29.659  0.00  0.00    -0.057 A 
ATOM     26  C   UNL     1      32.557 -37.067 -30.789  0.00  0.00    -0.030 A 
ATOM     27  C   UNL     1      31.450 -36.046 -30.960  0.00  0.00    +0.024 C 
ATOM     28  H   UNL     1      32.460 -34.392 -31.597  0.00  0.00    +0.000 HD
ENDBRANCH  17  18
ENDBRANCH  16  17
ENDBRANCH  15  16
ENDBRANCH   1  15
TORSDOF 6
ENDMDL
MODEL 7
REMARK VINA RESULT:    -6.614     19.779     21.743
REMARK INTER + INTRA:         -11.187
REMARK INTER:                  -7.733
REMARK INTRA:                  -3.454
REMARK UNBOUND:                -2.253
REMARK  Name = cpd251.pdb
REMARK  6 active torsions:
REMARK  status: ('A' for Active; 'I' for Inactive)
REMARK    1  A    between atoms: C_4  and  C_5
REMARK    2  A    between atoms: C_8  and  N_9
REMARK    3  A    between atoms: N_9  and  C_10
REMARK    4  A    between atoms: C_10  and  C_11
REMARK    5  A    between atoms: C_11  and  C_12
REMARK    6  A    between atoms: C_12  and  N_13
REMARK                            x       y       z     vdW  Elec       q    Type
REMARK                         _______ _______ _______ _____ _____    ______ ____
ROOT
ATOM      1  N   UNL     1      46.391 -17.905 -33.890  0.00  0.00    -0.328 N 
ATOM      2  H   UNL     1      47.135 -17.516 -33.377  0.00  0.00    +0.000 HD
ENDROOT
BRANCH   1   6
ATOM      3  C   UNL     1      46.735 -19.482 -37.723  0.00  0.00    +0.093 A 
ATOM      4  C   UNL     1      47.118 -18.165 -37.510  0.00  0.00    -0.031 A 
ATOM      5  C   UNL     1      47.026 -17.621 -36.227  0.00  0.00    -0.018 A 
ATOM      6  C   UNL     1      46.556 -18.401 -35.186  0.00  0.00    +0.141 A 
ATOM      7  N   UNL     1      46.181 -19.671 -35.418  0.00  0.00    -0.134 NA
ATOM      8  N   UNL     1      46.277 -20.217 -36.685  0.00  0.00    -0.147 NA
BRANCH   3  12
ATOM      9  C   UNL     1      46.780 -21.457 -41.553  0.00  0.00    -0.062 A 
ATOM     10  C   UNL     1      46.989 -20.084 -41.478  0.00  0.00    -0.061 A 
ATOM     11  C   UNL     1      46.981 -19.438 -40.237  0.00  0.00    -0.053 A 
ATOM     12  C   UNL     1      46.761 -20.147 -39.041  0.00  0.00    +0.002 A 
ATOM     13  C   UNL     1      46.562 -21.537 -39.148  0.00  0.00    -0.053 A 
ATOM     14  C   UNL     1      46.568 -22.186 -40.387  0.00  0.00    -0.061 A 
ENDBRANCH   3  12
ENDBRANCH   1   6
BRANCH   1  15
ATOM     15  C   UNL     1      45.040 -18.003 -33.348  0.00  0.00    +0.012 C 
BRANCH  15  16
ATOM     16  C   UNL     1      44.152 -16.955 -34.025  0.00  0.00    -0.025 C 
BRANCH  16  17
ATOM     17  C   UNL     1      42.992 -17.618 -34.777  0.00  0.00    +0.001 C 
BRANCH  17  18
ATOM     18  N   UNL     1      43.369 -18.083 -36.122  0.00  0.00    -0.298 N 
ATOM     19  C   UNL     1      43.005 -17.079 -37.136  0.00  0.00    +0.003 C 
ATOM     20  C   UNL     1      43.594 -17.447 -38.504  0.00  0.00    -0.015 C 
ATOM     21  C   UNL     1      43.291 -18.870 -38.891  0.00  0.00    -0.042 A 
ATOM     22  C   UNL     1      43.436 -19.286 -40.222  0.00  0.00    -0.058 A 
ATOM     23  C   UNL     1      43.188 -20.613 -40.576  0.00  0.00    -0.061 A 
ATOM     24  C   UNL     1      42.803 -21.532 -39.604  0.00  0.00    -0.061 A 
ATOM     25  C   UNL     1      42.669 -21.129 -38.275  0.00  0.00    -0.057 A 
ATOM     26  C   UNL     1      42.924 -19.800 -37.904  0.00  0.00    -0.030 A 
ATOM     27  C   UNL     1      42.737 -19.376 -36.460  0.00  0.00    +0.024 C 
ATOM     28  H   UNL     1      44.380 -18.216 -36.118  0.00  0.00    +0.000 HD
ENDBRANCH  17  18
ENDBRANCH  16  17
ENDBRANCH  15  16
ENDBRANCH   1  15
TORSDOF 6
ENDMDL
MODEL 8
REMARK VINA RESULT:    -6.608     33.391     36.009
REMARK INTER + INTRA:         -11.179
REMARK INTER:                 -10.487
REMARK INTRA:                  -0.692
REMARK UNBOUND:                -2.253
REMARK  Name = cpd251.pdb
REMARK  6 active torsions:
REMARK  status: ('A' for Active; 'I' for Inactive)
REMARK    1  A    between atoms: C_4  and  C_5
REMARK    2  A    between atoms: C_8  and  N_9
REMARK    3  A    between atoms: N_9  and  C_10
REMARK    4  A    between atoms: C_10  and  C_11
REMARK    5  A    between atoms: C_11  and  C_12
REMARK    6  A    between atoms: C_12  and  N_13
REMARK                            x       y       z     vdW  Elec       q    Type
REMARK                         _______ _______ _______ _____ _____    ______ ____
ROOT
ATOM      1  N   UNL     1      63.202 -20.439 -10.663  0.00  0.00    -0.328 N 
ATOM      2  H   UNL     1      63.328 -20.345 -11.635  0.00  0.00    +0.000 HD
ENDROOT
BRANCH   1   6
ATOM      3  C   UNL     1      63.223 -24.062  -8.623  0.00  0.00    +0.093 A 
ATOM      4  C   UNL     1      63.273 -24.081 -10.010  0.00  0.00    -0.031 A 
ATOM      5  C   UNL     1      63.283 -22.875 -10.715  0.00  0.00    -0.018 A 
ATOM      6  C   UNL     1      63.245 -21.679 -10.021  0.00  0.00    +0.141 A 
ATOM      7  N   UNL     1      63.188 -21.685  -8.678  0.00  0.00    -0.134 NA
ATOM      8  N   UNL     1      63.184 -22.877  -7.976  0.00  0.00    -0.147 NA
BRANCH   3  12
ATOM      9  C   UNL     1      63.113 -27.577  -6.131  0.00  0.00    -0.062 A 
ATOM     10  C   UNL     1      62.093 -27.345  -7.049  0.00  0.00    -0.061 A 
ATOM     11  C   UNL     1      62.126 -26.208  -7.864  0.00  0.00    -0.053 A 
ATOM     12  C   UNL     1      63.177 -25.275  -7.781  0.00  0.00    +0.002 A 
ATOM     13  C   UNL     1      64.199 -25.543  -6.850  0.00  0.00    -0.053 A 
ATOM     14  C   UNL     1      64.168 -26.677  -6.033  0.00  0.00    -0.061 A 
ENDBRANCH   3  12
ENDBRANCH   1   6
BRANCH   1  15
ATOM     15  C   UNL     1      62.955 -19.291  -9.796  0.00  0.00    +0.012 C 
BRANCH  15  16
ATOM     16  C   UNL     1      61.921 -18.377 -10.459  0.00  0.00    -0.025 C 
BRANCH  16  17
ATOM     17  C   UNL     1      60.656 -18.263  -9.601  0.00  0.00    +0.001 C 
BRANCH  17  18
ATOM     18  N   UNL     1      59.427 -18.137 -10.401  0.00  0.00    -0.298 N 
ATOM     19  C   UNL     1      58.247 -18.048  -9.526  0.00  0.00    +0.003 C 
ATOM     20  C   UNL     1      56.993 -17.689 -10.334  0.00  0.00    -0.015 C 
ATOM     21  C   UNL     1      56.817 -18.577 -11.538  0.00  0.00    -0.042 A 
ATOM     22  C   UNL     1      55.581 -18.640 -12.194  0.00  0.00    -0.058 A 
ATOM     23  C   UNL     1      55.426 -19.435 -13.329  0.00  0.00    -0.061 A 
ATOM     24  C   UNL     1      56.505 -20.166 -13.820  0.00  0.00    -0.061 A 
ATOM     25  C   UNL     1      57.742 -20.099 -13.179  0.00  0.00    -0.057 A 
ATOM     26  C   UNL     1      57.914 -19.295 -12.042  0.00  0.00    -0.030 A 
ATOM     27  C   UNL     1      59.258 -19.266 -11.342  0.00  0.00    +0.024 C 
ATOM     28  H   UNL     1      59.515 -17.280 -10.948  0.00  0.00    +0.000 HD
ENDBRANCH  17  18
ENDBRANCH  16  17
ENDBRANCH  15  16
ENDBRANCH   1  15
TORSDOF 6
ENDMDL
MODEL 9
REMARK VINA RESULT:    -6.543     20.129     22.332
REMARK INTER + INTRA:         -11.091
REMARK INTER:                  -7.784
REMARK INTRA:                  -3.307
REMARK UNBOUND:                -2.253
REMARK  Name = cpd251.pdb
REMARK  6 active torsions:
REMARK  status: ('A' for Active; 'I' for Inactive)
REMARK    1  A    between atoms: C_4  and  C_5
REMARK    2  A    between atoms: C_8  and  N_9
REMARK    3  A    between atoms: N_9  and  C_10
REMARK    4  A    between atoms: C_10  and  C_11
REMARK    5  A    between atoms: C_11  and  C_12
REMARK    6  A    between atoms: C_12  and  N_13
REMARK                            x       y       z     vdW  Elec       q    Type
REMARK                         _______ _______ _______ _____ _____    ______ ____
ROOT
ATOM      1  N   UNL     1      47.246 -22.128 -42.254  0.00  0.00    -0.328 N 
ATOM      2  H   UNL     1      48.118 -22.386 -42.630  0.00  0.00    +0.000 HD
ENDROOT
BRANCH   1   6
ATOM      3  C   UNL     1      46.957 -19.438 -39.095  0.00  0.00    +0.093 A 
ATOM      4  C   UNL     1      47.182 -18.942 -40.372  0.00  0.00    -0.031 A 
ATOM      5  C   UNL     1      47.266 -19.826 -41.450  0.00  0.00    -0.018 A 
ATOM      6  C   UNL     1      47.123 -21.184 -41.231  0.00  0.00    +0.141 A 
ATOM      7  N   UNL     1      46.915 -21.643 -39.985  0.00  0.00    -0.134 NA
ATOM      8  N   UNL     1      46.825 -20.771 -38.915  0.00  0.00    -0.147 NA
BRANCH   3  12
ATOM      9  C   UNL     1      46.755 -17.025 -35.531  0.00  0.00    -0.062 A 
ATOM     10  C   UNL     1      46.986 -16.423 -36.764  0.00  0.00    -0.061 A 
ATOM     11  C   UNL     1      47.046 -17.201 -37.925  0.00  0.00    -0.053 A 
ATOM     12  C   UNL     1      46.882 -18.598 -37.883  0.00  0.00    +0.002 A 
ATOM     13  C   UNL     1      46.641 -19.177 -36.622  0.00  0.00    -0.053 A 
ATOM     14  C   UNL     1      46.581 -18.403 -35.459  0.00  0.00    -0.061 A 
ENDBRANCH   3  12
ENDBRANCH   1   6
BRANCH   1  15
ATOM     15  C   UNL     1      45.993 -22.705 -42.729  0.00  0.00    +0.012 C 
BRANCH  15  16
ATOM     16  C   UNL     1      44.953 -21.591 -42.875  0.00  0.00    -0.025 C 
BRANCH  16  17
ATOM     17  C   UNL     1      43.779 -21.802 -41.911  0.00  0.00    +0.001 C 
BRANCH  17  18
ATOM     18  N   UNL     1      43.891 -20.997 -40.684  0.00  0.00    -0.298 N 
ATOM     19  C   UNL     1      42.965 -21.494 -39.653  0.00  0.00    +0.003 C 
ATOM     20  C   UNL     1      43.233 -20.813 -38.305  0.00  0.00    -0.015 C 
ATOM     21  C   UNL     1      43.294 -19.313 -38.424  0.00  0.00    -0.042 A 
ATOM     22  C   UNL     1      43.184 -18.509 -37.282  0.00  0.00    -0.058 A 
ATOM     23  C   UNL     1      43.274 -17.121 -37.387  0.00  0.00    -0.061 A 
ATOM     24  C   UNL     1      43.482 -16.529 -38.630  0.00  0.00    -0.061 A 
ATOM     25  C   UNL     1      43.605 -17.324 -39.770  0.00  0.00    -0.057 A 
ATOM     26  C   UNL     1      43.526 -18.722 -39.677  0.00  0.00    -0.030 A 
ATOM     27  C   UNL     1      43.627 -19.564 -40.934  0.00  0.00    +0.024 C 
ATOM     28  H   UNL     1      44.853 -21.088 -40.355  0.00  0.00    +0.000 HD
ENDBRANCH  17  18
ENDBRANCH  16  17
ENDBRANCH  15  16
ENDBRANCH   1  15
TORSDOF 6
ENDMDL
MODEL 10
REMARK VINA RESULT:    -6.415     19.532     22.018
REMARK INTER + INTRA:         -10.917
REMARK INTER:                  -7.378
REMARK INTRA:                  -3.539
REMARK UNBOUND:                -2.253
REMARK  Name = cpd251.pdb
REMARK  6 active torsions:
REMARK  status: ('A' for Active; 'I' for Inactive)
REMARK    1  A    between atoms: C_4  and  C_5
REMARK    2  A    between atoms: C_8  and  N_9
REMARK    3  A    between atoms: N_9  and  C_10
REMARK    4  A    between atoms: C_10  and  C_11
REMARK    5  A    between atoms: C_11  and  C_12
REMARK    6  A    between atoms: C_12  and  N_13
REMARK                            x       y       z     vdW  Elec       q    Type
REMARK                         _______ _______ _______ _____ _____    ______ ____
ROOT
ATOM      1  N   UNL     1      43.692 -19.648 -33.566  0.00  0.00    -0.328 N 
ATOM      2  H   UNL     1      43.174 -20.272 -33.009  0.00  0.00    +0.000 HD
ENDROOT
BRANCH   1   6
ATOM      3  C   UNL     1      44.884 -20.603 -37.435  0.00  0.00    +0.093 A 
ATOM      4  C   UNL     1      43.526 -20.561 -37.149  0.00  0.00    -0.031 A 
ATOM      5  C   UNL     1      43.103 -20.226 -35.861  0.00  0.00    -0.018 A 
ATOM      6  C   UNL     1      44.043 -19.941 -34.887  0.00  0.00    +0.141 A 
ATOM      7  N   UNL     1      45.353 -19.997 -35.184  0.00  0.00    -0.134 NA
ATOM      8  N   UNL     1      45.776 -20.322 -36.459  0.00  0.00    -0.147 NA
BRANCH   3  12
ATOM      9  C   UNL     1      46.544 -21.712 -41.253  0.00  0.00    -0.062 A 
ATOM     10  C   UNL     1      45.175 -21.498 -41.128  0.00  0.00    -0.061 A 
ATOM     11  C   UNL     1      44.631 -21.133 -39.892  0.00  0.00    -0.053 A 
ATOM     12  C   UNL     1      45.440 -20.975 -38.751  0.00  0.00    +0.002 A 
ATOM     13  C   UNL     1      46.823 -21.188 -38.912  0.00  0.00    -0.053 A 
ATOM     14  C   UNL     1      47.370 -21.555 -40.145  0.00  0.00    -0.061 A 
ENDBRANCH   3  12
ENDBRANCH   1   6
BRANCH   1  15
ATOM     15  C   UNL     1      44.147 -18.354 -33.068  0.00  0.00    +0.012 C 
BRANCH  15  16
ATOM     16  C   UNL     1      43.591 -17.248 -33.969  0.00  0.00    -0.025 C 
BRANCH  16  17
ATOM     17  C   UNL     1      44.723 -16.416 -34.583  0.00  0.00    +0.001 C 
BRANCH  17  18
ATOM     18  N   UNL     1      45.263 -17.003 -35.820  0.00  0.00    -0.298 N 
ATOM     19  C   UNL     1      46.598 -16.454 -36.112  0.00  0.00    +0.003 C 
ATOM     20  C   UNL     1      47.262 -17.219 -37.264  0.00  0.00    -0.015 C 
ATOM     21  C   UNL     1      46.359 -17.348 -38.461  0.00  0.00    -0.042 A 
ATOM     22  C   UNL     1      46.887 -17.698 -39.711  0.00  0.00    -0.058 A 
ATOM     23  C   UNL     1      46.047 -17.850 -40.814  0.00  0.00    -0.061 A 
ATOM     24  C   UNL     1      44.675 -17.661 -40.674  0.00  0.00    -0.061 A 
ATOM     25  C   UNL     1      44.139 -17.324 -39.431  0.00  0.00    -0.057 A 
ATOM     26  C   UNL     1      44.972 -17.178 -38.311  0.00  0.00    -0.030 A 
ATOM     27  C   UNL     1      44.372 -16.776 -36.978  0.00  0.00    +0.024 C 
ATOM     28  H   UNL     1      45.332 -18.009 -35.666  0.00  0.00    +0.000 HD
ENDBRANCH  17  18
ENDBRANCH  16  17
ENDBRANCH  15  16
ENDBRANCH   1  15
TORSDOF 6
ENDMDL
MODEL 11
REMARK VINA RESULT:    -6.238     18.768     21.104
REMARK INTER + INTRA:         -10.678
REMARK INTER:                  -7.425
REMARK INTRA:                  -3.253
REMARK UNBOUND:                -2.253
REMARK  Name = cpd251.pdb
REMARK  6 active torsions:
REMARK  status: ('A' for Active; 'I' for Inactive)
REMARK    1  A    between atoms: C_4  and  C_5
REMARK    2  A    between atoms: C_8  and  N_9
REMARK    3  A    between atoms: N_9  and  C_10
REMARK    4  A    between atoms: C_10  and  C_11
REMARK    5  A    between atoms: C_11  and  C_12
REMARK    6  A    between atoms: C_12  and  N_13
REMARK                            x       y       z     vdW  Elec       q    Type
REMARK                         _______ _______ _______ _____ _____    ______ ____
ROOT
ATOM      1  N   UNL     1      45.301 -17.994 -33.027  0.00  0.00    -0.328 N 
ATOM      2  H   UNL     1      45.918 -18.143 -32.275  0.00  0.00    +0.000 HD
ENDROOT
BRANCH   1   6
ATOM      3  C   UNL     1      46.168 -19.209 -36.909  0.00  0.00    +0.093 A 
ATOM      4  C   UNL     1      45.999 -17.854 -36.660  0.00  0.00    -0.031 A 
ATOM      5  C   UNL     1      45.724 -17.423 -35.360  0.00  0.00    -0.018 A 
ATOM      6  C   UNL     1      45.623 -18.351 -34.339  0.00  0.00    +0.141 A 
ATOM      7  N   UNL     1      45.781 -19.659 -34.606  0.00  0.00    -0.134 NA
ATOM      8  N   UNL     1      46.060 -20.090 -35.890  0.00  0.00    -0.147 NA
BRANCH   3  12
ATOM      9  C   UNL     1      46.906 -20.904 -40.802  0.00  0.00    -0.062 A 
ATOM     10  C   UNL     1      46.896 -19.522 -40.637  0.00  0.00    -0.061 A 
ATOM     11  C   UNL     1      46.663 -18.967 -39.375  0.00  0.00    -0.053 A 
ATOM     12  C   UNL     1      46.430 -19.776 -38.247  0.00  0.00    +0.002 A 
ATOM     13  C   UNL     1      46.456 -21.171 -38.443  0.00  0.00    -0.053 A 
ATOM     14  C   UNL     1      46.688 -21.730 -39.704  0.00  0.00    -0.061 A 
ENDBRANCH   3  12
ENDBRANCH   1   6
BRANCH   1  15
ATOM     15  C   UNL     1      43.987 -17.385 -32.847  0.00  0.00    +0.012 C 
BRANCH  15  16
ATOM     16  C   UNL     1      42.916 -18.475 -32.930  0.00  0.00    -0.025 C 
BRANCH  16  17
ATOM     17  C   UNL     1      41.796 -18.075 -33.899  0.00  0.00    +0.001 C 
BRANCH  17  18
ATOM     18  N   UNL     1      41.775 -18.892 -35.123  0.00  0.00    -0.298 N 
ATOM     19  C   UNL     1      42.466 -20.174 -34.900  0.00  0.00    +0.003 C 
ATOM     20  C   UNL     1      42.255 -21.121 -36.088  0.00  0.00    -0.015 C 
ATOM     21  C   UNL     1      42.563 -20.462 -37.406  0.00  0.00    -0.042 A 
ATOM     22  C   UNL     1      42.765 -21.239 -38.555  0.00  0.00    -0.058 A 
ATOM     23  C   UNL     1      43.018 -20.628 -39.783  0.00  0.00    -0.061 A 
ATOM     24  C   UNL     1      43.063 -19.239 -39.873  0.00  0.00    -0.061 A 
ATOM     25  C   UNL     1      42.851 -18.459 -38.737  0.00  0.00    -0.057 A 
ATOM     26  C   UNL     1      42.586 -19.060 -37.497  0.00  0.00    -0.030 A 
ATOM     27  C   UNL     1      42.395 -18.192 -36.269  0.00  0.00    +0.024 C 
ATOM     28  H   UNL     1      40.796 -19.065 -35.349  0.00  0.00    +0.000 HD
ENDBRANCH  17  18
ENDBRANCH  16  17
ENDBRANCH  15  16
ENDBRANCH   1  15
TORSDOF 6
ENDMDL
MODEL 12
REMARK VINA RESULT:    -6.177      2.183      5.186
REMARK INTER + INTRA:         -10.596
REMARK INTER:                  -7.367
REMARK INTRA:                  -3.229
REMARK UNBOUND:                -2.253
REMARK  Name = cpd251.pdb
REMARK  6 active torsions:
REMARK  status: ('A' for Active; 'I' for Inactive)
REMARK    1  A    between atoms: C_4  and  C_5
REMARK    2  A    between atoms: C_8  and  N_9
REMARK    3  A    between atoms: N_9  and  C_10
REMARK    4  A    between atoms: C_10  and  C_11
REMARK    5  A    between atoms: C_11  and  C_12
REMARK    6  A    between atoms: C_12  and  N_13
REMARK                            x       y       z     vdW  Elec       q    Type
REMARK                         _______ _______ _______ _____ _____    ______ ____
ROOT
ATOM      1  N   UNL     1      30.140 -36.094 -32.064  0.00  0.00    -0.328 N 
ATOM      2  H   UNL     1      29.446 -36.422 -32.681  0.00  0.00    +0.000 HD
ENDROOT
BRANCH   1   6
ATOM      3  C   UNL     1      33.214 -38.551 -30.720  0.00  0.00    +0.093 A 
ATOM      4  C   UNL     1      33.191 -38.189 -32.059  0.00  0.00    -0.031 A 
ATOM      5  C   UNL     1      32.177 -37.351 -32.529  0.00  0.00    -0.018 A 
ATOM      6  C   UNL     1      31.209 -36.893 -31.653  0.00  0.00    +0.141 A 
ATOM      7  N   UNL     1      31.247 -37.264 -30.361  0.00  0.00    -0.134 NA
ATOM      8  N   UNL     1      32.252 -38.088 -29.890  0.00  0.00    -0.147 NA
BRANCH   3  12
ATOM      9  C   UNL     1      36.112 -41.208 -28.956  0.00  0.00    -0.062 A 
ATOM     10  C   UNL     1      36.300 -40.738 -30.253  0.00  0.00    -0.061 A 
ATOM     11  C   UNL     1      35.365 -39.871 -30.828  0.00  0.00    -0.053 A 
ATOM     12  C   UNL     1      34.219 -39.454 -30.125  0.00  0.00    +0.002 A 
ATOM     13  C   UNL     1      34.062 -39.939 -28.812  0.00  0.00    -0.053 A 
ATOM     14  C   UNL     1      34.993 -40.807 -28.234  0.00  0.00    -0.061 A 
ENDBRANCH   3  12
ENDBRANCH   1   6
BRANCH   1  15
ATOM     15  C   UNL     1      30.120 -34.741 -31.518  0.00  0.00    +0.012 C 
BRANCH  15  16
ATOM     16  C   UNL     1      31.453 -34.057 -31.831  0.00  0.00    -0.025 C 
BRANCH  16  17
ATOM     17  C   UNL     1      32.182 -33.653 -30.544  0.00  0.00    +0.001 C 
BRANCH  17  18
ATOM     18  N   UNL     1      33.029 -34.727 -30.001  0.00  0.00    -0.298 N 
ATOM     19  C   UNL     1      33.080 -34.653 -28.531  0.00  0.00    +0.003 C 
ATOM     20  C   UNL     1      33.767 -35.892 -27.946  0.00  0.00    -0.015 C 
ATOM     21  C   UNL     1      35.090 -36.178 -28.607  0.00  0.00    -0.042 A 
ATOM     22  C   UNL     1      36.013 -37.037 -27.997  0.00  0.00    -0.058 A 
ATOM     23  C   UNL     1      37.225 -37.329 -28.624  0.00  0.00    -0.061 A 
ATOM     24  C   UNL     1      37.517 -36.771 -29.866  0.00  0.00    -0.061 A 
ATOM     25  C   UNL     1      36.598 -35.924 -30.485  0.00  0.00    -0.057 A 
ATOM     26  C   UNL     1      35.372 -35.630 -29.869  0.00  0.00    -0.030 A 
ATOM     27  C   UNL     1      34.403 -34.679 -30.545  0.00  0.00    +0.024 C 
ATOM     28  H   UNL     1      32.607 -35.611 -30.286  0.00  0.00    +0.000 HD
ENDBRANCH  17  18
ENDBRANCH  16  17
ENDBRANCH  15  16
ENDBRANCH   1  15
TORSDOF 6
ENDMDL
MODEL 13
REMARK VINA RESULT:    -6.107      1.920      6.604
REMARK INTER + INTRA:         -10.502
REMARK INTER:                  -9.834
REMARK INTRA:                  -0.668
REMARK UNBOUND:                -2.253
REMARK  Name = cpd251.pdb
REMARK  6 active torsions:
REMARK  status: ('A' for Active; 'I' for Inactive)
REMARK    1  A    between atoms: C_4  and  C_5
REMARK    2  A    between atoms: C_8  and  N_9
REMARK    3  A    between atoms: N_9  and  C_10
REMARK    4  A    between atoms: C_10  and  C_11
REMARK    5  A    between atoms: C_11  and  C_12
REMARK    6  A    between atoms: C_12  and  N_13
REMARK                            x       y       z     vdW  Elec       q    Type
REMARK                         _______ _______ _______ _____ _____    ______ ____
ROOT
ATOM      1  N   UNL     1      34.344 -38.834 -31.278  0.00  0.00    -0.328 N 
ATOM      2  H   UNL     1      33.821 -39.540 -31.722  0.00  0.00    +0.000 HD
ENDROOT
BRANCH   1   6
ATOM      3  C   UNL     1      32.895 -34.962 -30.830  0.00  0.00    +0.093 A 
ATOM      4  C   UNL     1      32.201 -36.004 -30.232  0.00  0.00    -0.031 A 
ATOM      5  C   UNL     1      32.679 -37.310 -30.356  0.00  0.00    -0.018 A 
ATOM      6  C   UNL     1      33.838 -37.548 -31.072  0.00  0.00    +0.141 A 
ATOM      7  N   UNL     1      34.489 -36.524 -31.650  0.00  0.00    -0.134 NA
ATOM      8  N   UNL     1      34.023 -35.228 -31.525  0.00  0.00    -0.147 NA
BRANCH   3  12
ATOM      9  C   UNL     1      31.684 -30.828 -30.703  0.00  0.00    -0.062 A 
ATOM     10  C   UNL     1      30.946 -31.745 -31.447  0.00  0.00    -0.061 A 
ATOM     11  C   UNL     1      31.332 -33.089 -31.487  0.00  0.00    -0.053 A 
ATOM     12  C   UNL     1      32.464 -33.550 -30.789  0.00  0.00    +0.002 A 
ATOM     13  C   UNL     1      33.184 -32.601 -30.037  0.00  0.00    -0.053 A 
ATOM     14  C   UNL     1      32.802 -31.256 -29.996  0.00  0.00    -0.061 A 
ENDBRANCH   3  12
ENDBRANCH   1   6
BRANCH   1  15
ATOM     15  C   UNL     1      35.701 -39.060 -30.791  0.00  0.00    +0.012 C 
BRANCH  15  16
ATOM     16  C   UNL     1      35.697 -39.011 -29.261  0.00  0.00    -0.025 C 
BRANCH  16  17
ATOM     17  C   UNL     1      36.712 -37.986 -28.739  0.00  0.00    +0.001 C 
BRANCH  17  18
ATOM     18  N   UNL     1      38.034 -38.112 -29.374  0.00  0.00    -0.298 N 
ATOM     19  C   UNL     1      39.094 -38.159 -28.353  0.00  0.00    +0.003 C 
ATOM     20  C   UNL     1      40.445 -38.515 -28.987  0.00  0.00    -0.015 C 
ATOM     21  C   UNL     1      40.761 -37.656 -30.182  0.00  0.00    -0.042 A 
ATOM     22  C   UNL     1      42.070 -37.588 -30.678  0.00  0.00    -0.058 A 
ATOM     23  C   UNL     1      42.357 -36.819 -31.805  0.00  0.00    -0.061 A 
ATOM     24  C   UNL     1      41.339 -36.120 -32.448  0.00  0.00    -0.061 A 
ATOM     25  C   UNL     1      40.031 -36.192 -31.968  0.00  0.00    -0.057 A 
ATOM     26  C   UNL     1      39.727 -36.970 -30.841  0.00  0.00    -0.030 A 
ATOM     27  C   UNL     1      38.305 -37.004 -30.315  0.00  0.00    +0.024 C 
ATOM     28  H   UNL     1      38.028 -38.983 -29.904  0.00  0.00    +0.000 HD
ENDBRANCH  17  18
ENDBRANCH  16  17
ENDBRANCH  15  16
ENDBRANCH   1  15
TORSDOF 6
ENDMDL
MODEL 14
REMARK VINA RESULT:    -6.084      2.146      6.540
REMARK INTER + INTRA:         -10.471
REMARK INTER:                  -9.541
REMARK INTRA:                  -0.930
REMARK UNBOUND:                -2.253
REMARK  Name = cpd251.pdb
REMARK  6 active torsions:
REMARK  status: ('A' for Active; 'I' for Inactive)
REMARK    1  A    between atoms: C_4  and  C_5
REMARK    2  A    between atoms: C_8  and  N_9
REMARK    3  A    between atoms: N_9  and  C_10
REMARK    4  A    between atoms: C_10  and  C_11
REMARK    5  A    between atoms: C_11  and  C_12
REMARK    6  A    between atoms: C_12  and  N_13
REMARK                            x       y       z     vdW  Elec       q    Type
REMARK                         _______ _______ _______ _____ _____    ______ ____
ROOT
ATOM      1  N   UNL     1      34.219 -37.867 -28.364  0.00  0.00    -0.328 N 
ATOM      2  H   UNL     1      34.530 -38.007 -27.441  0.00  0.00    +0.000 HD
ENDROOT
BRANCH   1   6
ATOM      3  C   UNL     1      32.502 -34.281 -29.583  0.00  0.00    +0.093 A 
ATOM      4  C   UNL     1      33.844 -34.288 -29.228  0.00  0.00    -0.031 A 
ATOM      5  C   UNL     1      34.445 -35.485 -28.832  0.00  0.00    -0.018 A 
ATOM      6  C   UNL     1      33.695 -36.647 -28.799  0.00  0.00    +0.141 A 
ATOM      7  N   UNL     1      32.395 -36.614 -29.138  0.00  0.00    -0.134 NA
ATOM      8  N   UNL     1      31.797 -35.433 -29.538  0.00  0.00    -0.147 NA
BRANCH   3  12
ATOM      9  C   UNL     1      30.366 -30.718 -30.730  0.00  0.00    -0.062 A 
ATOM     10  C   UNL     1      30.511 -31.762 -31.638  0.00  0.00    -0.061 A 
ATOM     11  C   UNL     1      31.199 -32.923 -31.269  0.00  0.00    -0.053 A 
ATOM     12  C   UNL     1      31.761 -33.069 -29.987  0.00  0.00    +0.002 A 
ATOM     13  C   UNL     1      31.589 -31.999 -29.087  0.00  0.00    -0.053 A 
ATOM     14  C   UNL     1      30.903 -30.836 -29.452  0.00  0.00    -0.061 A 
ENDBRANCH   3  12
ENDBRANCH   1   6
BRANCH   1  15
ATOM     15  C   UNL     1      34.273 -38.921 -29.372  0.00  0.00    +0.012 C 
BRANCH  15  16
ATOM     16  C   UNL     1      35.734 -39.166 -29.760  0.00  0.00    -0.025 C 
BRANCH  16  17
ATOM     17  C   UNL     1      36.688 -38.462 -28.788  0.00  0.00    +0.001 C 
BRANCH  17  18
ATOM     18  N   UNL     1      37.530 -37.448 -29.442  0.00  0.00    -0.298 N 
ATOM     19  C   UNL     1      37.084 -37.220 -30.827  0.00  0.00    +0.003 C 
ATOM     20  C   UNL     1      37.803 -36.012 -31.440  0.00  0.00    -0.015 C 
ATOM     21  C   UNL     1      39.296 -36.086 -31.266  0.00  0.00    -0.042 A 
ATOM     22  C   UNL     1      40.139 -35.278 -32.040  0.00  0.00    -0.058 A 
ATOM     23  C   UNL     1      41.521 -35.322 -31.856  0.00  0.00    -0.061 A 
ATOM     24  C   UNL     1      42.068 -36.166 -30.894  0.00  0.00    -0.061 A 
ATOM     25  C   UNL     1      41.235 -36.966 -30.111  0.00  0.00    -0.057 A 
ATOM     26  C   UNL     1      39.843 -36.924 -30.279  0.00  0.00    -0.030 A 
ATOM     27  C   UNL     1      38.959 -37.828 -29.442  0.00  0.00    +0.024 C 
ATOM     28  H   UNL     1      37.432 -36.587 -28.904  0.00  0.00    +0.000 HD
ENDBRANCH  17  18
ENDBRANCH  16  17
ENDBRANCH  15  16
ENDBRANCH   1  15
TORSDOF 6
ENDMDL
MODEL 15
REMARK VINA RESULT:    -6.027     18.981     21.317
REMARK INTER + INTRA:         -10.394
REMARK INTER:                  -7.014
REMARK INTRA:                  -3.380
REMARK UNBOUND:                -2.253
REMARK  Name = cpd251.pdb
REMARK  6 active torsions:
REMARK  status: ('A' for Active; 'I' for Inactive)
REMARK    1  A    between atoms: C_4  and  C_5
REMARK    2  A    between atoms: C_8  and  N_9
REMARK    3  A    between atoms: N_9  and  C_10
REMARK    4  A    between atoms: C_10  and  C_11
REMARK    5  A    between atoms: C_11  and  C_12
REMARK    6  A    between atoms: C_12  and  N_13
REMARK                            x       y       z     vdW  Elec       q    Type
REMARK                         _______ _______ _______ _____ _____    ______ ____
ROOT
ATOM      1  N   UNL     1      46.156 -17.942 -34.896  0.00  0.00    -0.328 N 
ATOM      2  H   UNL     1      47.046 -17.990 -34.478  0.00  0.00    +0.000 HD
ENDROOT
BRANCH   1   6
ATOM      3  C   UNL     1      45.392 -19.479 -38.684  0.00  0.00    +0.093 A 
ATOM      4  C   UNL     1      45.916 -20.326 -37.717  0.00  0.00    -0.031 A 
ATOM      5  C   UNL     1      46.165 -19.835 -36.433  0.00  0.00    -0.018 A 
ATOM      6  C   UNL     1      45.885 -18.512 -36.143  0.00  0.00    +0.141 A 
ATOM      7  N   UNL     1      45.386 -17.707 -37.098  0.00  0.00    -0.134 NA
ATOM      8  N   UNL     1      45.132 -18.191 -38.368  0.00  0.00    -0.147 NA
BRANCH   3  12
ATOM      9  C   UNL     1      44.585 -20.707 -42.735  0.00  0.00    -0.062 A 
ATOM     10  C   UNL     1      44.441 -19.371 -42.373  0.00  0.00    -0.061 A 
ATOM     11  C   UNL     1      44.707 -18.966 -41.061  0.00  0.00    -0.053 A 
ATOM     12  C   UNL     1      45.120 -19.884 -40.078  0.00  0.00    +0.002 A 
ATOM     13  C   UNL     1      45.267 -21.227 -40.477  0.00  0.00    -0.053 A 
ATOM     14  C   UNL     1      45.000 -21.636 -41.787  0.00  0.00    -0.061 A 
ENDBRANCH   3  12
ENDBRANCH   1   6
BRANCH   1  15
ATOM     15  C   UNL     1      45.030 -17.271 -34.255  0.00  0.00    +0.012 C 
BRANCH  15  16
ATOM     16  C   UNL     1      44.223 -18.299 -33.458  0.00  0.00    -0.025 C 
BRANCH  16  17
ATOM     17  C   UNL     1      42.776 -18.374 -33.961  0.00  0.00    +0.001 C 
BRANCH  17  18
ATOM     18  N   UNL     1      42.683 -18.636 -35.406  0.00  0.00    -0.298 N 
ATOM     19  C   UNL     1      41.582 -17.859 -36.002  0.00  0.00    +0.003 C 
ATOM     20  C   UNL     1      41.619 -17.947 -37.533  0.00  0.00    -0.015 C 
ATOM     21  C   UNL     1      41.723 -19.367 -38.022  0.00  0.00    -0.042 A 
ATOM     22  C   UNL     1      41.425 -19.679 -39.355  0.00  0.00    -0.058 A 
ATOM     23  C   UNL     1      41.553 -20.989 -39.817  0.00  0.00    -0.061 A 
ATOM     24  C   UNL     1      41.985 -21.993 -38.954  0.00  0.00    -0.061 A 
ATOM     25  C   UNL     1      42.294 -21.688 -37.628  0.00  0.00    -0.057 A 
ATOM     26  C   UNL     1      42.180 -20.373 -37.153  0.00  0.00    -0.030 A 
ATOM     27  C   UNL     1      42.488 -20.072 -35.699  0.00  0.00    +0.024 C 
ATOM     28  H   UNL     1      43.570 -18.346 -35.819  0.00  0.00    +0.000 HD
ENDBRANCH  17  18
ENDBRANCH  16  17
ENDBRANCH  15  16
ENDBRANCH   1  15
TORSDOF 6
ENDMDL
MODEL 16
REMARK VINA RESULT:    -6.024      2.610      5.326
REMARK INTER + INTRA:         -10.390
REMARK INTER:                  -7.341
REMARK INTRA:                  -3.049
REMARK UNBOUND:                -2.253
REMARK  Name = cpd251.pdb
REMARK  6 active torsions:
REMARK  status: ('A' for Active; 'I' for Inactive)
REMARK    1  A    between atoms: C_4  and  C_5
REMARK    2  A    between atoms: C_8  and  N_9
REMARK    3  A    between atoms: N_9  and  C_10
REMARK    4  A    between atoms: C_10  and  C_11
REMARK    5  A    between atoms: C_11  and  C_12
REMARK    6  A    between atoms: C_12  and  N_13
REMARK                            x       y       z     vdW  Elec       q    Type
REMARK                         _______ _______ _______ _____ _____    ______ ____
ROOT
ATOM      1  N   UNL     1      29.781 -34.482 -31.328  0.00  0.00    -0.328 N 
ATOM      2  H   UNL     1      29.101 -34.489 -32.040  0.00  0.00    +0.000 HD
ENDROOT
BRANCH   1   6
ATOM      3  C   UNL     1      32.490 -37.584 -30.748  0.00  0.00    +0.093 A 
ATOM      4  C   UNL     1      31.441 -37.441 -29.849  0.00  0.00    -0.031 A 
ATOM      5  C   UNL     1      30.511 -36.416 -30.035  0.00  0.00    -0.018 A 
ATOM      6  C   UNL     1      30.646 -35.558 -31.111  0.00  0.00    +0.141 A 
ATOM      7  N   UNL     1      31.674 -35.710 -31.963  0.00  0.00    -0.134 NA
ATOM      8  N   UNL     1      32.594 -36.727 -31.788  0.00  0.00    -0.147 NA
BRANCH   3  12
ATOM      9  C   UNL     1      35.535 -40.611 -30.385  0.00  0.00    -0.062 A 
ATOM     10  C   UNL     1      35.616 -39.664 -31.401  0.00  0.00    -0.061 A 
ATOM     11  C   UNL     1      34.633 -38.675 -31.520  0.00  0.00    -0.053 A 
ATOM     12  C   UNL     1      33.545 -38.610 -30.630  0.00  0.00    +0.002 A 
ATOM     13  C   UNL     1      33.496 -39.576 -29.606  0.00  0.00    -0.053 A 
ATOM     14  C   UNL     1      34.476 -40.567 -29.485  0.00  0.00    -0.061 A 
ENDBRANCH   3  12
ENDBRANCH   1   6
BRANCH   1  15
ATOM     15  C   UNL     1      29.953 -33.347 -30.427  0.00  0.00    +0.012 C 
BRANCH  15  16
ATOM     16  C   UNL     1      31.162 -32.525 -30.884  0.00  0.00    -0.025 C 
BRANCH  16  17
ATOM     17  C   UNL     1      32.052 -32.145 -29.695  0.00  0.00    +0.001 C 
BRANCH  17  18
ATOM     18  N   UNL     1      33.332 -32.871 -29.679  0.00  0.00    -0.298 N 
ATOM     19  C   UNL     1      33.793 -33.135 -31.053  0.00  0.00    +0.003 C 
ATOM     20  C   UNL     1      35.225 -33.684 -31.052  0.00  0.00    -0.015 C 
ATOM     21  C   UNL     1      35.394 -34.838 -30.100  0.00  0.00    -0.042 A 
ATOM     22  C   UNL     1      36.507 -35.683 -30.204  0.00  0.00    -0.058 A 
ATOM     23  C   UNL     1      36.682 -36.732 -29.301  0.00  0.00    -0.061 A 
ATOM     24  C   UNL     1      35.752 -36.938 -28.286  0.00  0.00    -0.061 A 
ATOM     25  C   UNL     1      34.648 -36.094 -28.168  0.00  0.00    -0.057 A 
ATOM     26  C   UNL     1      34.465 -35.029 -29.063  0.00  0.00    -0.030 A 
ATOM     27  C   UNL     1      33.239 -34.146 -28.937  0.00  0.00    +0.024 C 
ATOM     28  H   UNL     1      34.007 -32.274 -29.200  0.00  0.00    +0.000 HD
ENDBRANCH  17  18
ENDBRANCH  16  17
ENDBRANCH  15  16
ENDBRANCH   1  15
TORSDOF 6
ENDMDL
MODEL 17
REMARK VINA RESULT:    -5.907      2.799      4.935
REMARK INTER + INTRA:         -10.231
REMARK INTER:                  -6.908
REMARK INTRA:                  -3.323
REMARK UNBOUND:                -2.253
REMARK  Name = cpd251.pdb
REMARK  6 active torsions:
REMARK  status: ('A' for Active; 'I' for Inactive)
REMARK    1  A    between atoms: C_4  and  C_5
REMARK    2  A    between atoms: C_8  and  N_9
REMARK    3  A    between atoms: N_9  and  C_10
REMARK    4  A    between atoms: C_10  and  C_11
REMARK    5  A    between atoms: C_11  and  C_12
REMARK    6  A    between atoms: C_12  and  N_13
REMARK                            x       y       z     vdW  Elec       q    Type
REMARK                         _______ _______ _______ _____ _____    ______ ____
ROOT
ATOM      1  N   UNL     1      31.150 -36.947 -23.969  0.00  0.00    -0.328 N 
ATOM      2  H   UNL     1      31.043 -36.190 -23.348  0.00  0.00    +0.000 HD
ENDROOT
BRANCH   1   6
ATOM      3  C   UNL     1      34.368 -37.088 -26.600  0.00  0.00    +0.093 A 
ATOM      4  C   UNL     1      34.431 -37.836 -25.433  0.00  0.00    -0.031 A 
ATOM      5  C   UNL     1      33.355 -37.816 -24.543  0.00  0.00    -0.018 A 
ATOM      6  C   UNL     1      32.240 -37.052 -24.837  0.00  0.00    +0.141 A 
ATOM      7  N   UNL     1      32.204 -36.329 -25.970  0.00  0.00    -0.134 NA
ATOM      8  N   UNL     1      33.265 -36.350 -26.857  0.00  0.00    -0.147 NA
BRANCH   3  12
ATOM      9  C   UNL     1      37.562 -36.913 -29.487  0.00  0.00    -0.062 A 
ATOM     10  C   UNL     1      36.421 -36.136 -29.667  0.00  0.00    -0.061 A 
ATOM     11  C   UNL     1      35.383 -36.185 -28.730  0.00  0.00    -0.053 A 
ATOM     12  C   UNL     1      35.458 -37.012 -27.593  0.00  0.00    +0.002 A 
ATOM     13  C   UNL     1      36.629 -37.778 -27.434  0.00  0.00    -0.053 A 
ATOM     14  C   UNL     1      37.668 -37.733 -28.369  0.00  0.00    -0.061 A 
ENDBRANCH   3  12
ENDBRANCH   1   6
BRANCH   1  15
ATOM     15  C   UNL     1      30.180 -38.035 -24.045  0.00  0.00    +0.012 C 
BRANCH  15  16
ATOM     16  C   UNL     1      29.558 -38.053 -25.444  0.00  0.00    -0.025 C 
BRANCH  16  17
ATOM     17  C   UNL     1      30.008 -39.290 -26.231  0.00  0.00    +0.001 C 
BRANCH  17  18
ATOM     18  N   UNL     1      31.136 -39.017 -27.137  0.00  0.00    -0.298 N 
ATOM     19  C   UNL     1      30.649 -38.750 -28.501  0.00  0.00    +0.003 C 
ATOM     20  C   UNL     1      31.788 -38.244 -29.396  0.00  0.00    -0.015 C 
ATOM     21  C   UNL     1      33.006 -39.125 -29.324  0.00  0.00    -0.042 A 
ATOM     22  C   UNL     1      34.002 -39.035 -30.306  0.00  0.00    -0.058 A 
ATOM     23  C   UNL     1      35.147 -39.827 -30.222  0.00  0.00    -0.061 A 
ATOM     24  C   UNL     1      35.308 -40.707 -29.155  0.00  0.00    -0.061 A 
ATOM     25  C   UNL     1      34.327 -40.794 -28.167  0.00  0.00    -0.057 A 
ATOM     26  C   UNL     1      33.175 -39.996 -28.234  0.00  0.00    -0.030 A 
ATOM     27  C   UNL     1      32.105 -40.133 -27.168  0.00  0.00    +0.024 C 
ATOM     28  H   UNL     1      31.614 -38.192 -26.775  0.00  0.00    +0.000 HD
ENDBRANCH  17  18
ENDBRANCH  16  17
ENDBRANCH  15  16
ENDBRANCH   1  15
TORSDOF 6
ENDMDL
MODEL 18
REMARK VINA RESULT:    -5.887     16.490     19.642
REMARK INTER + INTRA:         -10.205
REMARK INTER:                  -6.874
REMARK INTRA:                  -3.330
REMARK UNBOUND:                -2.253
REMARK  Name = cpd251.pdb
REMARK  6 active torsions:
REMARK  status: ('A' for Active; 'I' for Inactive)
REMARK    1  A    between atoms: C_4  and  C_5
REMARK    2  A    between atoms: C_8  and  N_9
REMARK    3  A    between atoms: N_9  and  C_10
REMARK    4  A    between atoms: C_10  and  C_11
REMARK    5  A    between atoms: C_11  and  C_12
REMARK    6  A    between atoms: C_12  and  N_13
REMARK                            x       y       z     vdW  Elec       q    Type
REMARK                         _______ _______ _______ _____ _____    ______ ____
ROOT
ATOM      1  N   UNL     1      45.249 -18.425 -33.465  0.00  0.00    -0.328 N 
ATOM      2  H   UNL     1      45.904 -18.673 -32.773  0.00  0.00    +0.000 HD
ENDROOT
BRANCH   1   6
ATOM      3  C   UNL     1      41.276 -19.609 -33.135  0.00  0.00    +0.093 A 
ATOM      4  C   UNL     1      41.607 -18.299 -32.818  0.00  0.00    -0.031 A 
ATOM      5  C   UNL     1      42.933 -17.876 -32.938  0.00  0.00    -0.018 A 
ATOM      6  C   UNL     1      43.898 -18.767 -33.371  0.00  0.00    +0.141 A 
ATOM      7  N   UNL     1      43.555 -20.034 -33.663  0.00  0.00    -0.134 NA
ATOM      8  N   UNL     1      42.243 -20.456 -33.553  0.00  0.00    -0.147 NA
BRANCH   3  12
ATOM      9  C   UNL     1      37.324 -21.288 -32.769  0.00  0.00    -0.062 A 
ATOM     10  C   UNL     1      37.510 -19.915 -32.631  0.00  0.00    -0.061 A 
ATOM     11  C   UNL     1      38.791 -19.365 -32.755  0.00  0.00    -0.053 A 
ATOM     12  C   UNL     1      39.915 -20.170 -33.015  0.00  0.00    +0.002 A 
ATOM     13  C   UNL     1      39.693 -21.553 -33.159  0.00  0.00    -0.053 A 
ATOM     14  C   UNL     1      38.415 -22.108 -33.034  0.00  0.00    -0.061 A 
ENDBRANCH   3  12
ENDBRANCH   1   6
BRANCH   1  15
ATOM     15  C   UNL     1      45.625 -17.676 -34.660  0.00  0.00    +0.012 C 
BRANCH  15  16
ATOM     16  C   UNL     1      45.821 -18.654 -35.821  0.00  0.00    -0.025 C 
BRANCH  16  17
ATOM     17  C   UNL     1      44.735 -18.468 -36.888  0.00  0.00    +0.001 C 
BRANCH  17  18
ATOM     18  N   UNL     1      43.513 -19.238 -36.604  0.00  0.00    -0.298 N 
ATOM     19  C   UNL     1      43.415 -20.401 -37.501  0.00  0.00    +0.003 C 
ATOM     20  C   UNL     1      42.274 -21.330 -37.067  0.00  0.00    -0.015 C 
ATOM     21  C   UNL     1      40.981 -20.588 -36.857  0.00  0.00    -0.042 A 
ATOM     22  C   UNL     1      39.767 -21.285 -36.800  0.00  0.00    -0.058 A 
ATOM     23  C   UNL     1      38.572 -20.602 -36.572  0.00  0.00    -0.061 A 
ATOM     24  C   UNL     1      38.584 -19.221 -36.393  0.00  0.00    -0.061 A 
ATOM     25  C   UNL     1      39.789 -18.521 -36.436  0.00  0.00    -0.057 A 
ATOM     26  C   UNL     1      40.999 -19.197 -36.655  0.00  0.00    -0.030 A 
ATOM     27  C   UNL     1      42.294 -18.412 -36.733  0.00  0.00    +0.024 C 
ATOM     28  H   UNL     1      43.579 -19.555 -35.636  0.00  0.00    +0.000 HD
ENDBRANCH  17  18
ENDBRANCH  16  17
ENDBRANCH  15  16
ENDBRANCH   1  15
TORSDOF 6
ENDMDL
MODEL 19
REMARK VINA RESULT:    -5.882      3.736      5.006
REMARK INTER + INTRA:         -10.199
REMARK INTER:                  -9.577
REMARK INTRA:                  -0.621
REMARK UNBOUND:                -2.253
REMARK  Name = cpd251.pdb
REMARK  6 active torsions:
REMARK  status: ('A' for Active; 'I' for Inactive)
REMARK    1  A    between atoms: C_4  and  C_5
REMARK    2  A    between atoms: C_8  and  N_9
REMARK    3  A    between atoms: N_9  and  C_10
REMARK    4  A    between atoms: C_10  and  C_11
REMARK    5  A    between atoms: C_11  and  C_12
REMARK    6  A    between atoms: C_12  and  N_13
REMARK                            x       y       z     vdW  Elec       q    Type
REMARK                         _______ _______ _______ _____ _____    ______ ____
ROOT
ATOM      1  N   UNL     1      34.901 -34.750 -31.028  0.00  0.00    -0.328 N 
ATOM      2  H   UNL     1      34.644 -34.025 -30.413  0.00  0.00    +0.000 HD
ENDROOT
BRANCH   1   6
ATOM      3  C   UNL     1      38.647 -36.543 -30.814  0.00  0.00    +0.093 A 
ATOM      4  C   UNL     1      37.671 -36.934 -29.908  0.00  0.00    -0.031 A 
ATOM      5  C   UNL     1      36.401 -36.357 -29.972  0.00  0.00    -0.018 A 
ATOM      6  C   UNL     1      36.132 -35.404 -30.938  0.00  0.00    +0.141 A 
ATOM      7  N   UNL     1      37.096 -35.034 -31.799  0.00  0.00    -0.134 NA
ATOM      8  N   UNL     1      38.353 -35.607 -31.743  0.00  0.00    -0.147 NA
BRANCH   3  12
ATOM      9  C   UNL     1      42.694 -38.022 -30.843  0.00  0.00    -0.062 A 
ATOM     10  C   UNL     1      41.821 -38.411 -29.831  0.00  0.00    -0.061 A 
ATOM     11  C   UNL     1      40.504 -37.938 -29.820  0.00  0.00    -0.053 A 
ATOM     12  C   UNL     1      40.029 -37.064 -30.816  0.00  0.00    +0.002 A 
ATOM     13  C   UNL     1      40.933 -36.697 -31.831  0.00  0.00    -0.053 A 
ATOM     14  C   UNL     1      42.250 -37.166 -31.845  0.00  0.00    -0.061 A 
ENDBRANCH   3  12
ENDBRANCH   1   6
BRANCH   1  15
ATOM     15  C   UNL     1      34.020 -35.213 -32.095  0.00  0.00    +0.012 C 
BRANCH  15  16
ATOM     16  C   UNL     1      32.640 -34.576 -31.916  0.00  0.00    -0.025 C 
BRANCH  16  17
ATOM     17  C   UNL     1      32.441 -34.087 -30.476  0.00  0.00    +0.001 C 
BRANCH  17  18
ATOM     18  N   UNL     1      31.168 -33.374 -30.282  0.00  0.00    -0.298 N 
ATOM     19  C   UNL     1      30.470 -33.204 -31.567  0.00  0.00    +0.003 C 
ATOM     20  C   UNL     1      29.048 -32.670 -31.348  0.00  0.00    -0.015 C 
ATOM     21  C   UNL     1      29.024 -31.459 -30.455  0.00  0.00    -0.042 A 
ATOM     22  C   UNL     1      27.892 -30.633 -30.414  0.00  0.00    -0.058 A 
ATOM     23  C   UNL     1      27.856 -29.530 -29.562  0.00  0.00    -0.061 A 
ATOM     24  C   UNL     1      28.944 -29.249 -28.740  0.00  0.00    -0.061 A 
ATOM     25  C   UNL     1      30.069 -30.073 -28.765  0.00  0.00    -0.057 A 
ATOM     26  C   UNL     1      30.115 -31.192 -29.611  0.00  0.00    -0.030 A 
ATOM     27  C   UNL     1      31.363 -32.053 -29.648  0.00  0.00    +0.024 C 
ATOM     28  H   UNL     1      30.600 -33.945 -29.655  0.00  0.00    +0.000 HD
ENDBRANCH  17  18
ENDBRANCH  16  17
ENDBRANCH  15  16
ENDBRANCH   1  15
TORSDOF 6
ENDMDL
MODEL 20
REMARK VINA RESULT:    -5.768     18.334     21.054
REMARK INTER + INTRA:         -10.044
REMARK INTER:                  -6.577
REMARK INTRA:                  -3.466
REMARK UNBOUND:                -2.253
REMARK  Name = cpd251.pdb
REMARK  6 active torsions:
REMARK  status: ('A' for Active; 'I' for Inactive)
REMARK    1  A    between atoms: C_4  and  C_5
REMARK    2  A    between atoms: C_8  and  N_9
REMARK    3  A    between atoms: N_9  and  C_10
REMARK    4  A    between atoms: C_10  and  C_11
REMARK    5  A    between atoms: C_11  and  C_12
REMARK    6  A    between atoms: C_12  and  N_13
REMARK                            x       y       z     vdW  Elec       q    Type
REMARK                         _______ _______ _______ _____ _____    ______ ____
ROOT
ATOM      1  N   UNL     1      40.256 -19.746 -34.405  0.00  0.00    -0.328 N 
ATOM      2  H   UNL     1      39.360 -20.140 -34.305  0.00  0.00    +0.000 HD
ENDROOT
BRANCH   1   6
ATOM      3  C   UNL     1      42.579 -20.034 -37.843  0.00  0.00    +0.093 A 
ATOM      4  C   UNL     1      42.310 -21.190 -37.124  0.00  0.00    -0.031 A 
ATOM      5  C   UNL     1      41.519 -21.119 -35.976  0.00  0.00    -0.018 A 
ATOM      6  C   UNL     1      41.012 -19.897 -35.570  0.00  0.00    +0.141 A 
ATOM      7  N   UNL     1      41.293 -18.789 -36.277  0.00  0.00    -0.134 NA
ATOM      8  N   UNL     1      42.071 -18.855 -37.419  0.00  0.00    -0.147 NA
BRANCH   3  12
ATOM      9  C   UNL     1      45.046 -19.954 -41.375  0.00  0.00    -0.062 A 
ATOM     10  C   UNL     1      44.352 -18.812 -40.988  0.00  0.00    -0.061 A 
ATOM     11  C   UNL     1      43.554 -18.831 -39.839  0.00  0.00    -0.053 A 
ATOM     12  C   UNL     1      43.427 -19.990 -39.051  0.00  0.00    +0.002 A 
ATOM     13  C   UNL     1      44.150 -21.126 -39.462  0.00  0.00    -0.053 A 
ATOM     14  C   UNL     1      44.948 -21.112 -40.611  0.00  0.00    -0.061 A 
ENDBRANCH   3  12
ENDBRANCH   1   6
BRANCH   1  15
ATOM     15  C   UNL     1      40.885 -18.963 -33.346  0.00  0.00    +0.012 C 
BRANCH  15  16
ATOM     16  C   UNL     1      42.231 -19.599 -32.987  0.00  0.00    -0.025 C 
BRANCH  16  17
ATOM     17  C   UNL     1      43.390 -18.641 -33.287  0.00  0.00    +0.001 C 
BRANCH  17  18
ATOM     18  N   UNL     1      44.062 -18.934 -34.564  0.00  0.00    -0.298 N 
ATOM     19  C   UNL     1      45.157 -19.898 -34.362  0.00  0.00    +0.003 C 
ATOM     20  C   UNL     1      45.713 -20.381 -35.708  0.00  0.00    -0.015 C 
ATOM     21  C   UNL     1      46.042 -19.241 -36.633  0.00  0.00    -0.042 A 
ATOM     22  C   UNL     1      46.866 -19.450 -37.747  0.00  0.00    -0.058 A 
ATOM     23  C   UNL     1      47.145 -18.401 -38.624  0.00  0.00    -0.061 A 
ATOM     24  C   UNL     1      46.597 -17.141 -38.398  0.00  0.00    -0.061 A 
ATOM     25  C   UNL     1      45.766 -16.928 -37.298  0.00  0.00    -0.057 A 
ATOM     26  C   UNL     1      45.470 -17.976 -36.414  0.00  0.00    -0.030 A 
ATOM     27  C   UNL     1      44.593 -17.713 -35.206  0.00  0.00    +0.024 C 
ATOM     28  H   UNL     1      43.359 -19.337 -35.184  0.00  0.00    +0.000 HD
ENDBRANCH  17  18
ENDBRANCH  16  17
ENDBRANCH  15  16
ENDBRANCH   1  15
TORSDOF 6
ENDMDL
