REMARK  Name = cpd251.pdb
REMARK  6 active torsions:
REMARK  status: ('A' for Active; 'I' for Inactive)
REMARK    1  A    between atoms: C_4  and  C_5
REMARK    2  A    between atoms: C_8  and  N_9
REMARK    3  A    between atoms: N_9  and  C_10
REMARK    4  A    between atoms: C_10  and  C_11
REMARK    5  A    between atoms: C_11  and  C_12
REMARK    6  A    between atoms: C_12  and  N_13
REMARK                            x       y       z     vdW  Elec       q    Type
REMARK                         _______ _______ _______ _____ _____    ______ ____
ROOT
ATOM      1  N   UNL     1      -4.843   1.746   0.750  0.00  0.00    -0.328 N 
ATOM      2  H   UNL     1      -4.876   2.575   1.280  0.00  0.00    +0.000 HD
ENDROOT
BRANCH   1   6
ATOM      3  C   UNL     1      -1.218  -0.210   0.176  0.00  0.00    +0.093 A 
ATOM      4  C   UNL     1      -2.280  -0.924   0.714  0.00  0.00    -0.031 A 
ATOM      5  C   UNL     1      -3.511  -0.291   0.900  0.00  0.00    -0.018 A 
ATOM      6  C   UNL     1      -3.656   1.038   0.545  0.00  0.00    +0.141 A 
ATOM      7  N   UNL     1      -2.611   1.712   0.034  0.00  0.00    -0.134 NA
ATOM      8  N   UNL     1      -1.392   1.088  -0.158  0.00  0.00    -0.147 NA
BRANCH   3  12
ATOM      9  C   UNL     1       2.741  -1.809  -0.407  0.00  0.00    -0.062 A 
ATOM     10  C   UNL     1       1.636  -2.653  -0.468  0.00  0.00    -0.061 A 
ATOM     11  C   UNL     1       0.348  -2.138  -0.285  0.00  0.00    -0.053 A 
ATOM     12  C   UNL     1       0.132  -0.770  -0.034  0.00  0.00    +0.002 A 
ATOM     13  C   UNL     1       1.269   0.060   0.012  0.00  0.00    -0.053 A 
ATOM     14  C   UNL     1       2.558  -0.451  -0.169  0.00  0.00    -0.061 A 
ENDBRANCH   3  12
ENDBRANCH   1   6
BRANCH   1  15
ATOM     15  C   UNL     1      -6.031   1.174   0.125  0.00  0.00    +0.012 C 
BRANCH  15  16
ATOM     16  C   UNL     1      -7.227   2.092   0.392  0.00  0.00    -0.025 C 
BRANCH  16  17
ATOM     17  C   UNL     1      -8.505   1.531  -0.243  0.00  0.00    +0.001 C 
BRANCH  17  18
ATOM     18  N   UNL     1      -9.712   2.286   0.131  0.00  0.00    -0.298 N 
ATOM     19  C   UNL     1     -10.923   1.583  -0.325  0.00  0.00    +0.003 C 
ATOM     20  C   UNL     1     -12.184   2.238   0.253  0.00  0.00    -0.015 C 
ATOM     21  C   UNL     1     -12.204   3.728   0.038  0.00  0.00    -0.042 A 
ATOM     22  C   UNL     1     -13.399   4.446   0.177  0.00  0.00    -0.058 A 
ATOM     23  C   UNL     1     -13.412   5.831   0.011  0.00  0.00    -0.061 A 
ATOM     24  C   UNL     1     -12.232   6.507  -0.287  0.00  0.00    -0.061 A 
ATOM     25  C   UNL     1     -11.036   5.801  -0.415  0.00  0.00    -0.057 A 
ATOM     26  C   UNL     1     -11.007   4.409  -0.241  0.00  0.00    -0.030 A 
ATOM     27  C   UNL     1      -9.702   3.658  -0.420  0.00  0.00    +0.024 C 
ATOM     28  H   UNL     1      -9.717   2.354   1.149  0.00  0.00    +0.000 HD
ENDBRANCH  17  18
ENDBRANCH  16  17
ENDBRANCH  15  16
ENDBRANCH   1  15
TORSDOF 6
