@<TRIPOS>MOLECULE
*****
 36 39 0 0 0
SMALL
GASTEIGER

@<TRIPOS>ATOM
      1 C           1.0000   -1.0000    0.0000 C.3     1  UNL1        0.1710
      2 N           1.0000    0.0000    0.0000 N.4     1  UNL1        0.3106
      3 C           2.0000    0.0000    0.0000 C.3     1  UNL1        0.1710
      4 C           1.0000    1.0000    0.0000 C.3     1  UNL1        0.1710
      5 C           0.0000    0.0000    0.0000 C.3     1  UNL1        0.1092
      6 C          -0.5000   -0.8660    0.0000 C.3     1  UNL1        0.0610
      7 C          -1.5000   -0.8660    0.0000 C.3     1  UNL1        0.0061
      8 C          -2.0000   -1.7321    0.0000 C.3     1  UNL1        0.0002
      9 C          -3.0000   -1.7321    0.0000 C.3     1  UNL1        0.0000
     10 C          -3.5000   -2.5981    0.0000 C.3     1  UNL1        0.0000
     11 C          -4.5000   -2.5981    0.0000 C.3     1  UNL1        0.0002
     12 C          -5.0000   -3.4641    0.0000 C.3     1  UNL1        0.0072
     13 C          -6.0000   -3.4641    0.0000 C.3     1  UNL1        0.0852
     14 C          -6.5000   -4.3301    0.0000 C.3     1  UNL1        0.3220
     15 N          -7.5000   -4.3301    0.0000 N.ar    1  UNL1       -0.1693
     16 C          -8.0000   -5.1962    0.0000 C.ar    1  UNL1        0.2274
     17 C          -7.5000   -6.0622    0.0000 C.ar    1  UNL1        0.0636
     18 C          -6.5000   -6.0622    0.0000 C.ar    1  UNL1        0.0059
     19 C          -6.0000   -6.9282    0.0000 C.ar    1  UNL1        0.0002
     20 C          -6.5000   -7.7942    0.0000 C.ar    1  UNL1        0.0000
     21 C          -7.5000   -7.7942    0.0000 C.ar    1  UNL1        0.0002
     22 C          -8.0000   -6.9282    0.0000 C.ar    1  UNL1        0.0059
     23 C          -9.0000   -5.1962    0.0000 C.ar    1  UNL1        0.0874
     24 C          -9.5000   -4.3301    0.0000 C.ar    1  UNL1        0.1007
     25 N         -10.5000   -4.3301    0.0000 N.pl3   1  UNL1       -0.1276
     26 C          -9.0000   -3.4641    0.0000 C.ar    1  UNL1        0.0804
     27 C          -9.5000   -2.5981    0.0000 C.ar    1  UNL1        0.0073
     28 C          -9.0000   -1.7321    0.0000 C.ar    1  UNL1        0.0004
     29 C          -8.0000   -1.7321    0.0000 C.ar    1  UNL1        0.0058
     30 C          -7.5000   -0.8660    0.0000 C.ar    1  UNL1        0.0016
     31 C          -6.5000   -0.8660    0.0000 C.ar    1  UNL1        0.0181
     32 C          -6.0000   -1.7321    0.0000 C.ar    1  UNL1        0.0893
     33 N          -5.0000   -1.7321    0.0000 N.pl3   1  UNL1       -0.1281
     34 C          -6.5000   -2.5981    0.0000 C.ar    1  UNL1        0.0240
     35 C          -7.5000   -2.5981    0.0000 C.ar    1  UNL1        0.0649
     36 C          -8.0000   -3.4641    0.0000 C.ar    1  UNL1        0.2272
@<TRIPOS>UNITY_ATOM_ATTR
2 1
charge 1
15 1
charge 1
@<TRIPOS>BOND
     1     1     2    1
     2     2     3    1
     3     2     4    1
     4     2     5    1
     5     5     6    1
     6     6     7    1
     7     7     8    1
     8     8     9    1
     9     9    10    1
    10    10    11    1
    11    11    12    1
    12    12    13    1
    13    13    14    1
    14    14    15    1
    15    15    16   ar
    16    16    17    1
    17    17    18   ar
    18    18    19   ar
    19    19    20   ar
    20    20    21   ar
    21    21    22   ar
    22    17    22   ar
    23    16    23   ar
    24    23    24   ar
    25    24    25    1
    26    24    26   ar
    27    26    27   ar
    28    27    28   ar
    29    28    29   ar
    30    29    30   ar
    31    30    31   ar
    32    31    32   ar
    33    32    33    1
    34    32    34   ar
    35    34    35   ar
    36    29    35   ar
    37    35    36   ar
    38    26    36   ar
    39    15    36   ar
