REMARK  Name = cpd168.pdb
REMARK  17 active torsions:
REMARK  status: ('A' for Active; 'I' for Inactive)
REMARK    1  A    between atoms: C_1  and  N_2
REMARK    2  A    between atoms: N_2  and  C_3
REMARK    3  A    between atoms: N_2  and  C_4
REMARK    4  A    between atoms: N_2  and  C_5
REMARK    5  A    between atoms: C_5  and  C_6
REMARK    6  A    between atoms: C_6  and  C_7
REMARK    7  A    between atoms: C_7  and  C_8
REMARK    8  A    between atoms: C_8  and  C_9
REMARK    9  A    between atoms: C_9  and  C_10
REMARK   10  A    between atoms: C_10  and  C_11
REMARK   11  A    between atoms: C_11  and  C_12
REMARK   12  A    between atoms: C_12  and  C_13
REMARK   13  A    between atoms: C_13  and  C_14
REMARK   14  A    between atoms: C_14  and  N_15
REMARK   15  A    between atoms: C_16  and  C_17
REMARK   16  A    between atoms: C_24  and  N_25
REMARK   17  A    between atoms: C_32  and  N_33
REMARK                            x       y       z     vdW  Elec       q    Type
REMARK                         _______ _______ _______ _____ _____    ______ ____
ROOT
ATOM      1  N   UNL     1      -9.342  -5.183   0.281  0.00  0.00    -0.339 N 
ATOM      2  C   UNL     1     -10.055  -6.348   0.358  0.00  0.00    +0.051 A 
ATOM      3  C   UNL     1     -11.425  -6.362   0.123  0.00  0.00    -0.016 A 
ATOM      4  C   UNL     1     -12.102  -5.194  -0.175  0.00  0.00    +0.036 A 
ATOM      5  C   UNL     1     -11.374  -3.990  -0.201  0.00  0.00    +0.020 A 
ATOM      6  C   UNL     1     -11.965  -2.787  -0.622  0.00  0.00    -0.050 A 
ATOM      7  C   UNL     1     -11.273  -1.581  -0.573  0.00  0.00    -0.053 A 
ATOM      8  C   UNL     1     -10.008  -1.514   0.001  0.00  0.00    -0.016 A 
ATOM      9  C   UNL     1      -9.393  -0.260   0.136  0.00  0.00    -0.052 A 
ATOM     10  C   UNL     1      -8.182  -0.123   0.809  0.00  0.00    -0.040 A 
ATOM     11  C   UNL     1      -7.614  -1.227   1.423  0.00  0.00    +0.025 A 
ATOM     12  C   UNL     1      -8.192  -2.486   1.223  0.00  0.00    -0.031 A 
ATOM     13  C   UNL     1      -9.376  -2.693   0.464  0.00  0.00    +0.008 A 
ATOM     14  C   UNL     1     -10.004  -3.968   0.208  0.00  0.00    +0.059 A 
ENDROOT
BRANCH   2  15
ATOM     15  C   UNL     1      -9.348  -7.586   0.696  0.00  0.00    -0.001 A 
ATOM     16  C   UNL     1      -8.823  -7.781   1.986  0.00  0.00    -0.053 A 
ATOM     17  C   UNL     1      -8.153  -8.962   2.311  0.00  0.00    -0.061 A 
ATOM     18  C   UNL     1      -8.004  -9.964   1.356  0.00  0.00    -0.062 A 
ATOM     19  C   UNL     1      -8.528  -9.793   0.077  0.00  0.00    -0.061 A 
ATOM     20  C   UNL     1      -9.201  -8.615  -0.252  0.00  0.00    -0.053 A 
ENDBRANCH   2  15
BRANCH   4  21
ATOM     21  N   UNL     1     -13.427  -5.297  -0.619  0.00  0.00    -0.357 N 
ATOM     22  H   UNL     1     -13.893  -6.163  -0.580  0.00  0.00    +0.000 HD
ATOM     23  H   UNL     1     -13.892  -4.503  -0.970  0.00  0.00    +0.000 HD
ENDBRANCH   4  21
BRANCH  11  24
ATOM     24  N   UNL     1      -6.361  -1.142   2.050  0.00  0.00    -0.358 N 
ATOM     25  H   UNL     1      -5.943  -0.263   2.197  0.00  0.00    +0.000 HD
ATOM     26  H   UNL     1      -5.900  -1.961   2.343  0.00  0.00    +0.000 HD
ENDBRANCH  11  24
BRANCH   1  27
ATOM     27  C   UNL     1      -7.882  -5.271  -0.111  0.00  0.00    +0.024 C 
BRANCH  27  28
ATOM     28  C   UNL     1      -7.709  -4.884  -1.583  0.00  0.00    -0.035 C 
BRANCH  28  29
ATOM     29  C   UNL     1      -6.252  -4.954  -2.055  0.00  0.00    -0.051 C 
BRANCH  29  30
ATOM     30  C   UNL     1      -5.374  -3.842  -1.470  0.00  0.00    -0.053 C 
BRANCH  30  31
ATOM     31  C   UNL     1      -3.951  -3.903  -2.037  0.00  0.00    -0.053 C 
BRANCH  31  32
ATOM     32  C   UNL     1      -3.001  -2.883  -1.398  0.00  0.00    -0.053 C 
BRANCH  32  33
ATOM     33  C   UNL     1      -3.247  -1.441  -1.860  0.00  0.00    -0.053 C 
BRANCH  33  34
ATOM     34  C   UNL     1      -2.428  -0.429  -1.053  0.00  0.00    -0.055 C 
BRANCH  34  35
ATOM     35  C   UNL     1      -0.923  -0.409  -1.393  0.00  0.00    -0.068 C 
BRANCH  35  36
ATOM     36  C   UNL     1       0.000   0.000   0.000  0.00  0.00    -0.089 C 
BRANCH  36  38
ATOM     37  C   UNL     1       1.000  -1.000   0.000  0.00  0.00    -0.101 C 
ATOM     38  N   UNL     1       1.000   0.000   0.000  0.00  0.00    +0.374 N 
ATOM     39  C   UNL     1       2.000   0.000   0.000  0.00  0.00    -0.101 C 
ATOM     40  C   UNL     1       1.000   1.000   0.000  0.00  0.00    -0.101 C 
ENDBRANCH  36  38
ENDBRANCH  35  36
ENDBRANCH  34  35
ENDBRANCH  33  34
ENDBRANCH  32  33
ENDBRANCH  31  32
ENDBRANCH  30  31
ENDBRANCH  29  30
ENDBRANCH  28  29
ENDBRANCH  27  28
ENDBRANCH   1  27
TORSDOF 14
