MODEL 1
REMARK VINA RESULT:    -8.090      0.000      0.000
REMARK INTER + INTRA:         -14.008
REMARK INTER:                 -13.293
REMARK INTRA:                  -0.715
REMARK UNBOUND:                -0.715
REMARK  Name = cpd168.pdb
REMARK  17 active torsions:
REMARK  status: ('A' for Active; 'I' for Inactive)
REMARK    1  A    between atoms: C_1  and  N_2
REMARK    2  A    between atoms: N_2  and  C_3
REMARK    3  A    between atoms: N_2  and  C_4
REMARK    4  A    between atoms: N_2  and  C_5
REMARK    5  A    between atoms: C_5  and  C_6
REMARK    6  A    between atoms: C_6  and  C_7
REMARK    7  A    between atoms: C_7  and  C_8
REMARK    8  A    between atoms: C_8  and  C_9
REMARK    9  A    between atoms: C_9  and  C_10
REMARK   10  A    between atoms: C_10  and  C_11
REMARK   11  A    between atoms: C_11  and  C_12
REMARK   12  A    between atoms: C_12  and  C_13
REMARK   13  A    between atoms: C_13  and  C_14
REMARK   14  A    between atoms: C_14  and  N_15
REMARK   15  A    between atoms: C_16  and  C_17
REMARK   16  A    between atoms: C_24  and  N_25
REMARK   17  A    between atoms: C_32  and  N_33
REMARK                            x       y       z     vdW  Elec       q    Type
REMARK                         _______ _______ _______ _____ _____    ______ ____
ROOT
ATOM      1  N   UNL     1      37.039 -37.221 -29.636  0.00  0.00    -0.339 N 
ATOM      2  C   UNL     1      35.867 -36.606 -29.290  0.00  0.00    +0.051 A 
ATOM      3  C   UNL     1      35.492 -35.404 -29.878  0.00  0.00    -0.016 A 
ATOM      4  C   UNL     1      36.305 -34.792 -30.814  0.00  0.00    +0.036 A 
ATOM      5  C   UNL     1      37.534 -35.401 -31.129  0.00  0.00    +0.020 A 
ATOM      6  C   UNL     1      38.351 -34.910 -32.161  0.00  0.00    -0.050 A 
ATOM      7  C   UNL     1      39.603 -35.460 -32.422  0.00  0.00    -0.053 A 
ATOM      8  C   UNL     1      40.130 -36.444 -31.592  0.00  0.00    -0.016 A 
ATOM      9  C   UNL     1      41.441 -36.888 -31.821  0.00  0.00    -0.052 A 
ATOM     10  C   UNL     1      42.058 -37.783 -30.950  0.00  0.00    -0.040 A 
ATOM     11  C   UNL     1      41.398 -38.180 -29.799  0.00  0.00    +0.025 A 
ATOM     12  C   UNL     1      40.065 -37.792 -29.614  0.00  0.00    -0.031 A 
ATOM     13  C   UNL     1      39.359 -36.957 -30.522  0.00  0.00    +0.008 A 
ATOM     14  C   UNL     1      37.981 -36.543 -30.393  0.00  0.00    +0.059 A 
ENDROOT
BRANCH   2  15
ATOM     15  C   UNL     1      35.012 -37.237 -28.282  0.00  0.00    -0.001 A 
ATOM     16  C   UNL     1      33.741 -37.731 -28.629  0.00  0.00    -0.053 A 
ATOM     17  C   UNL     1      32.926 -38.336 -27.670  0.00  0.00    -0.061 A 
ATOM     18  C   UNL     1      33.371 -38.462 -26.357  0.00  0.00    -0.062 A 
ATOM     19  C   UNL     1      34.631 -37.990 -25.998  0.00  0.00    -0.061 A 
ATOM     20  C   UNL     1      35.450 -37.386 -26.953  0.00  0.00    -0.053 A 
ENDBRANCH   2  15
BRANCH   4  21
ATOM     21  N   UNL     1      35.781 -33.710 -31.534  0.00  0.00    -0.357 N 
ATOM     22  H   UNL     1      36.086 -33.537 -32.453  0.00  0.00    +0.000 HD
ATOM     23  H   UNL     1      35.108 -33.123 -31.119  0.00  0.00    +0.000 HD
ENDBRANCH   4  21
BRANCH  11  24
ATOM     24  N   UNL     1      41.958 -39.133 -28.935  0.00  0.00    -0.358 N 
ATOM     25  H   UNL     1      42.727 -39.673 -29.230  0.00  0.00    +0.000 HD
ATOM     26  H   UNL     1      41.584 -39.262 -28.034  0.00  0.00    +0.000 HD
ENDBRANCH  11  24
BRANCH   1  27
ATOM     27  C   UNL     1      37.108 -38.730 -29.521  0.00  0.00    +0.024 C 
BRANCH  27  28
ATOM     28  C   UNL     1      36.353 -39.381 -30.685  0.00  0.00    -0.035 C 
BRANCH  28  29
ATOM     29  C   UNL     1      35.869 -40.800 -30.367  0.00  0.00    -0.051 C 
BRANCH  29  30
ATOM     30  C   UNL     1      35.905 -41.129 -28.870  0.00  0.00    -0.053 C 
BRANCH  30  31
ATOM     31  C   UNL     1      34.561 -41.694 -28.395  0.00  0.00    -0.053 C 
BRANCH  31  32
ATOM     32  C   UNL     1      33.583 -41.974 -29.542  0.00  0.00    -0.053 C 
BRANCH  32  33
ATOM     33  C   UNL     1      32.131 -41.601 -29.216  0.00  0.00    -0.053 C 
BRANCH  33  34
ATOM     34  C   UNL     1      31.556 -40.594 -30.217  0.00  0.00    -0.055 C 
BRANCH  34  35
ATOM     35  C   UNL     1      32.554 -40.125 -31.296  0.00  0.00    -0.068 C 
BRANCH  35  36
ATOM     36  C   UNL     1      32.155 -40.816 -32.821  0.00  0.00    -0.089 C 
BRANCH  36  38
ATOM     37  C   UNL     1      32.535 -39.984 -33.900  0.00  0.00    -0.101 C 
ATOM     38  N   UNL     1      32.817 -40.885 -33.568  0.00  0.00    +0.374 N 
ATOM     39  C   UNL     1      33.478 -40.954 -34.315  0.00  0.00    -0.101 C 
ATOM     40  C   UNL     1      33.098 -41.785 -33.235  0.00  0.00    -0.101 C 
ENDBRANCH  36  38
ENDBRANCH  35  36
ENDBRANCH  34  35
ENDBRANCH  33  34
ENDBRANCH  32  33
ENDBRANCH  31  32
ENDBRANCH  30  31
ENDBRANCH  29  30
ENDBRANCH  28  29
ENDBRANCH  27  28
ENDBRANCH   1  27
TORSDOF 14
ENDMDL
MODEL 2
REMARK VINA RESULT:    -7.988      1.643      2.241
REMARK INTER + INTRA:         -13.841
REMARK INTER:                 -12.785
REMARK INTRA:                  -1.055
REMARK UNBOUND:                -0.715
REMARK  Name = cpd168.pdb
REMARK  17 active torsions:
REMARK  status: ('A' for Active; 'I' for Inactive)
REMARK    1  A    between atoms: C_1  and  N_2
REMARK    2  A    between atoms: N_2  and  C_3
REMARK    3  A    between atoms: N_2  and  C_4
REMARK    4  A    between atoms: N_2  and  C_5
REMARK    5  A    between atoms: C_5  and  C_6
REMARK    6  A    between atoms: C_6  and  C_7
REMARK    7  A    between atoms: C_7  and  C_8
REMARK    8  A    between atoms: C_8  and  C_9
REMARK    9  A    between atoms: C_9  and  C_10
REMARK   10  A    between atoms: C_10  and  C_11
REMARK   11  A    between atoms: C_11  and  C_12
REMARK   12  A    between atoms: C_12  and  C_13
REMARK   13  A    between atoms: C_13  and  C_14
REMARK   14  A    between atoms: C_14  and  N_15
REMARK   15  A    between atoms: C_16  and  C_17
REMARK   16  A    between atoms: C_24  and  N_25
REMARK   17  A    between atoms: C_32  and  N_33
REMARK                            x       y       z     vdW  Elec       q    Type
REMARK                         _______ _______ _______ _____ _____    ______ ____
ROOT
ATOM      1  N   UNL     1      36.706 -37.197 -29.275  0.00  0.00    -0.339 N 
ATOM      2  C   UNL     1      35.542 -36.553 -28.958  0.00  0.00    +0.051 A 
ATOM      3  C   UNL     1      35.189 -35.366 -29.590  0.00  0.00    -0.016 A 
ATOM      4  C   UNL     1      36.018 -34.799 -30.539  0.00  0.00    +0.036 A 
ATOM      5  C   UNL     1      37.240 -35.436 -30.824  0.00  0.00    +0.020 A 
ATOM      6  C   UNL     1      38.071 -34.993 -31.866  0.00  0.00    -0.050 A 
ATOM      7  C   UNL     1      39.316 -35.569 -32.099  0.00  0.00    -0.053 A 
ATOM      8  C   UNL     1      39.822 -36.533 -31.233  0.00  0.00    -0.016 A 
ATOM      9  C   UNL     1      41.128 -37.004 -31.436  0.00  0.00    -0.052 A 
ATOM     10  C   UNL     1      41.725 -37.878 -30.532  0.00  0.00    -0.040 A 
ATOM     11  C   UNL     1      41.051 -38.226 -29.373  0.00  0.00    +0.025 A 
ATOM     12  C   UNL     1      39.723 -37.813 -29.211  0.00  0.00    -0.031 A 
ATOM     13  C   UNL     1      39.036 -36.998 -30.152  0.00  0.00    +0.008 A 
ATOM     14  C   UNL     1      37.664 -36.560 -30.047  0.00  0.00    +0.059 A 
ENDROOT
BRANCH   2  15
ATOM     15  C   UNL     1      34.669 -37.137 -27.936  0.00  0.00    -0.001 A 
ATOM     16  C   UNL     1      33.352 -37.516 -28.251  0.00  0.00    -0.053 A 
ATOM     17  C   UNL     1      32.521 -38.077 -27.279  0.00  0.00    -0.061 A 
ATOM     18  C   UNL     1      32.995 -38.270 -25.984  0.00  0.00    -0.062 A 
ATOM     19  C   UNL     1      34.301 -37.911 -25.658  0.00  0.00    -0.061 A 
ATOM     20  C   UNL     1      35.136 -37.353 -26.627  0.00  0.00    -0.053 A 
ENDBRANCH   2  15
BRANCH   4  21
ATOM     21  N   UNL     1      35.516 -33.733 -31.299  0.00  0.00    -0.357 N 
ATOM     22  H   UNL     1      36.094 -32.967 -31.513  0.00  0.00    +0.000 HD
ATOM     23  H   UNL     1      34.584 -33.752 -31.617  0.00  0.00    +0.000 HD
ENDBRANCH   4  21
BRANCH  11  24
ATOM     24  N   UNL     1      41.591 -39.158 -28.473  0.00  0.00    -0.358 N 
ATOM     25  H   UNL     1      42.421 -38.949 -27.988  0.00  0.00    +0.000 HD
ATOM     26  H   UNL     1      41.139 -40.021 -28.327  0.00  0.00    +0.000 HD
ENDBRANCH  11  24
BRANCH   1  27
ATOM     27  C   UNL     1      36.751 -38.702 -29.109  0.00  0.00    +0.024 C 
BRANCH  27  28
ATOM     28  C   UNL     1      36.304 -39.387 -30.404  0.00  0.00    -0.035 C 
BRANCH  28  29
ATOM     29  C   UNL     1      35.734 -40.792 -30.174  0.00  0.00    -0.051 C 
BRANCH  29  30
ATOM     30  C   UNL     1      35.047 -40.949 -28.813  0.00  0.00    -0.053 C 
BRANCH  30  31
ATOM     31  C   UNL     1      33.552 -41.248 -28.978  0.00  0.00    -0.053 C 
BRANCH  31  32
ATOM     32  C   UNL     1      33.082 -41.193 -30.436  0.00  0.00    -0.053 C 
BRANCH  32  33
ATOM     33  C   UNL     1      32.279 -39.931 -30.775  0.00  0.00    -0.053 C 
BRANCH  33  34
ATOM     34  C   UNL     1      32.813 -39.226 -32.026  0.00  0.00    -0.055 C 
BRANCH  34  35
ATOM     35  C   UNL     1      33.305 -37.784 -31.786  0.00  0.00    -0.068 C 
BRANCH  35  36
ATOM     36  C   UNL     1      32.309 -36.663 -32.629  0.00  0.00    -0.089 C 
BRANCH  36  38
ATOM     37  C   UNL     1      31.619 -35.834 -31.714  0.00  0.00    -0.101 C 
ATOM     38  N   UNL     1      32.309 -35.684 -32.422  0.00  0.00    +0.374 N 
ATOM     39  C   UNL     1      32.308 -34.706 -32.215  0.00  0.00    -0.101 C 
ATOM     40  C   UNL     1      32.999 -35.534 -33.131  0.00  0.00    -0.101 C 
ENDBRANCH  36  38
ENDBRANCH  35  36
ENDBRANCH  34  35
ENDBRANCH  33  34
ENDBRANCH  32  33
ENDBRANCH  31  32
ENDBRANCH  30  31
ENDBRANCH  29  30
ENDBRANCH  28  29
ENDBRANCH  27  28
ENDBRANCH   1  27
TORSDOF 14
ENDMDL
MODEL 3
REMARK VINA RESULT:    -7.796      2.615      4.641
REMARK INTER + INTRA:         -13.525
REMARK INTER:                 -13.059
REMARK INTRA:                  -0.466
REMARK UNBOUND:                -0.715
REMARK  Name = cpd168.pdb
REMARK  17 active torsions:
REMARK  status: ('A' for Active; 'I' for Inactive)
REMARK    1  A    between atoms: C_1  and  N_2
REMARK    2  A    between atoms: N_2  and  C_3
REMARK    3  A    between atoms: N_2  and  C_4
REMARK    4  A    between atoms: N_2  and  C_5
REMARK    5  A    between atoms: C_5  and  C_6
REMARK    6  A    between atoms: C_6  and  C_7
REMARK    7  A    between atoms: C_7  and  C_8
REMARK    8  A    between atoms: C_8  and  C_9
REMARK    9  A    between atoms: C_9  and  C_10
REMARK   10  A    between atoms: C_10  and  C_11
REMARK   11  A    between atoms: C_11  and  C_12
REMARK   12  A    between atoms: C_12  and  C_13
REMARK   13  A    between atoms: C_13  and  C_14
REMARK   14  A    between atoms: C_14  and  N_15
REMARK   15  A    between atoms: C_16  and  C_17
REMARK   16  A    between atoms: C_24  and  N_25
REMARK   17  A    between atoms: C_32  and  N_33
REMARK                            x       y       z     vdW  Elec       q    Type
REMARK                         _______ _______ _______ _____ _____    ______ ____
ROOT
ATOM      1  N   UNL     1      36.212 -36.957 -29.275  0.00  0.00    -0.339 N 
ATOM      2  C   UNL     1      35.072 -36.223 -29.095  0.00  0.00    +0.051 A 
ATOM      3  C   UNL     1      34.869 -35.039 -29.795  0.00  0.00    -0.016 A 
ATOM      4  C   UNL     1      35.824 -34.568 -30.677  0.00  0.00    +0.036 A 
ATOM      5  C   UNL     1      37.018 -35.299 -30.819  0.00  0.00    +0.020 A 
ATOM      6  C   UNL     1      37.975 -34.954 -31.788  0.00  0.00    -0.050 A 
ATOM      7  C   UNL     1      39.191 -35.624 -31.879  0.00  0.00    -0.053 A 
ATOM      8  C   UNL     1      39.541 -36.586 -30.937  0.00  0.00    -0.016 A 
ATOM      9  C   UNL     1      40.823 -37.154 -30.996  0.00  0.00    -0.052 A 
ATOM     10  C   UNL     1      41.265 -38.032 -30.010  0.00  0.00    -0.040 A 
ATOM     11  C   UNL     1      40.460 -38.287 -28.912  0.00  0.00    +0.025 A 
ATOM     12  C   UNL     1      39.156 -37.777 -28.895  0.00  0.00    -0.031 A 
ATOM     13  C   UNL     1      38.623 -36.954 -29.924  0.00  0.00    +0.008 A 
ATOM     14  C   UNL     1      37.283 -36.418 -29.969  0.00  0.00    +0.059 A 
ENDROOT
BRANCH   2  15
ATOM     15  C   UNL     1      34.066 -36.704 -28.145  0.00  0.00    -0.001 A 
ATOM     16  C   UNL     1      34.374 -36.831 -26.779  0.00  0.00    -0.053 A 
ATOM     17  C   UNL     1      33.414 -37.285 -25.872  0.00  0.00    -0.061 A 
ATOM     18  C   UNL     1      32.136 -37.614 -26.316  0.00  0.00    -0.062 A 
ATOM     19  C   UNL     1      31.810 -37.483 -27.663  0.00  0.00    -0.061 A 
ATOM     20  C   UNL     1      32.765 -37.026 -28.574  0.00  0.00    -0.053 A 
ENDBRANCH   2  15
BRANCH   4  21
ATOM     21  N   UNL     1      35.475 -33.501 -31.515  0.00  0.00    -0.357 N 
ATOM     22  H   UNL     1      35.830 -33.459 -32.432  0.00  0.00    +0.000 HD
ATOM     23  H   UNL     1      34.875 -32.792 -31.187  0.00  0.00    +0.000 HD
ENDBRANCH   4  21
BRANCH  11  24
ATOM     24  N   UNL     1      40.842 -39.218 -27.934  0.00  0.00    -0.358 N 
ATOM     25  H   UNL     1      41.794 -39.431 -27.803  0.00  0.00    +0.000 HD
ATOM     26  H   UNL     1      40.159 -39.659 -27.380  0.00  0.00    +0.000 HD
ENDBRANCH  11  24
BRANCH   1  27
ATOM     27  C   UNL     1      36.132 -38.454 -29.057  0.00  0.00    +0.024 C 
BRANCH  27  28
ATOM     28  C   UNL     1      35.941 -39.170 -30.398  0.00  0.00    -0.035 C 
BRANCH  28  29
ATOM     29  C   UNL     1      34.471 -39.470 -30.714  0.00  0.00    -0.051 C 
BRANCH  29  30
ATOM     30  C   UNL     1      34.064 -39.063 -32.135  0.00  0.00    -0.053 C 
BRANCH  30  31
ATOM     31  C   UNL     1      33.025 -37.936 -32.113  0.00  0.00    -0.053 C 
BRANCH  31  32
ATOM     32  C   UNL     1      33.560 -36.610 -32.668  0.00  0.00    -0.053 C 
BRANCH  32  33
ATOM     33  C   UNL     1      32.457 -35.613 -33.043  0.00  0.00    -0.053 C 
BRANCH  33  34
ATOM     34  C   UNL     1      31.943 -34.836 -31.827  0.00  0.00    -0.055 C 
BRANCH  34  35
ATOM     35  C   UNL     1      31.960 -33.302 -31.995  0.00  0.00    -0.068 C 
BRANCH  35  36
ATOM     36  C   UNL     1      31.977 -32.532 -30.457  0.00  0.00    -0.089 C 
BRANCH  36  38
ATOM     37  C   UNL     1      30.857 -31.705 -30.211  0.00  0.00    -0.101 C 
ATOM     38  N   UNL     1      31.835 -31.548 -30.348  0.00  0.00    +0.374 N 
ATOM     39  C   UNL     1      31.692 -30.564 -30.239  0.00  0.00    -0.101 C 
ATOM     40  C   UNL     1      32.813 -31.391 -30.484  0.00  0.00    -0.101 C 
ENDBRANCH  36  38
ENDBRANCH  35  36
ENDBRANCH  34  35
ENDBRANCH  33  34
ENDBRANCH  32  33
ENDBRANCH  31  32
ENDBRANCH  30  31
ENDBRANCH  29  30
ENDBRANCH  28  29
ENDBRANCH  27  28
ENDBRANCH   1  27
TORSDOF 14
ENDMDL
MODEL 4
REMARK VINA RESULT:    -7.645      1.054      1.697
REMARK INTER + INTRA:         -13.276
REMARK INTER:                 -13.148
REMARK INTRA:                  -0.128
REMARK UNBOUND:                -0.715
REMARK  Name = cpd168.pdb
REMARK  17 active torsions:
REMARK  status: ('A' for Active; 'I' for Inactive)
REMARK    1  A    between atoms: C_1  and  N_2
REMARK    2  A    between atoms: N_2  and  C_3
REMARK    3  A    between atoms: N_2  and  C_4
REMARK    4  A    between atoms: N_2  and  C_5
REMARK    5  A    between atoms: C_5  and  C_6
REMARK    6  A    between atoms: C_6  and  C_7
REMARK    7  A    between atoms: C_7  and  C_8
REMARK    8  A    between atoms: C_8  and  C_9
REMARK    9  A    between atoms: C_9  and  C_10
REMARK   10  A    between atoms: C_10  and  C_11
REMARK   11  A    between atoms: C_11  and  C_12
REMARK   12  A    between atoms: C_12  and  C_13
REMARK   13  A    between atoms: C_13  and  C_14
REMARK   14  A    between atoms: C_14  and  N_15
REMARK   15  A    between atoms: C_16  and  C_17
REMARK   16  A    between atoms: C_24  and  N_25
REMARK   17  A    between atoms: C_32  and  N_33
REMARK                            x       y       z     vdW  Elec       q    Type
REMARK                         _______ _______ _______ _____ _____    ______ ____
ROOT
ATOM      1  N   UNL     1      36.442 -37.288 -29.285  0.00  0.00    -0.339 N 
ATOM      2  C   UNL     1      35.242 -36.685 -29.020  0.00  0.00    +0.051 A 
ATOM      3  C   UNL     1      34.861 -35.530 -29.693  0.00  0.00    -0.016 A 
ATOM      4  C   UNL     1      35.696 -34.953 -30.632  0.00  0.00    +0.036 A 
ATOM      5  C   UNL     1      36.951 -35.546 -30.863  0.00  0.00    +0.020 A 
ATOM      6  C   UNL     1      37.796 -35.094 -31.890  0.00  0.00    -0.050 A 
ATOM      7  C   UNL     1      39.069 -35.624 -32.070  0.00  0.00    -0.053 A 
ATOM      8  C   UNL     1      39.588 -36.543 -31.164  0.00  0.00    -0.016 A 
ATOM      9  C   UNL     1      40.917 -36.965 -31.315  0.00  0.00    -0.052 A 
ATOM     10  C   UNL     1      41.521 -37.790 -30.371  0.00  0.00    -0.040 A 
ATOM     11  C   UNL     1      40.825 -38.136 -29.224  0.00  0.00    +0.025 A 
ATOM     12  C   UNL     1      39.478 -37.775 -29.113  0.00  0.00    -0.031 A 
ATOM     13  C   UNL     1      38.787 -37.014 -30.095  0.00  0.00    +0.008 A 
ATOM     14  C   UNL     1      37.396 -36.630 -30.044  0.00  0.00    +0.059 A 
ENDROOT
BRANCH   2  15
ATOM     15  C   UNL     1      34.363 -37.279 -28.010  0.00  0.00    -0.001 A 
ATOM     16  C   UNL     1      34.656 -37.149 -26.640  0.00  0.00    -0.053 A 
ATOM     17  C   UNL     1      33.817 -37.710 -25.676  0.00  0.00    -0.061 A 
ATOM     18  C   UNL     1      32.673 -38.402 -26.065  0.00  0.00    -0.062 A 
ATOM     19  C   UNL     1      32.361 -38.530 -27.417  0.00  0.00    -0.061 A 
ATOM     20  C   UNL     1      33.196 -37.968 -28.384  0.00  0.00    -0.053 A 
ENDBRANCH   2  15
BRANCH   4  21
ATOM     21  N   UNL     1      35.174 -33.929 -31.434  0.00  0.00    -0.357 N 
ATOM     22  H   UNL     1      35.259 -33.979 -32.413  0.00  0.00    +0.000 HD
ATOM     23  H   UNL     1      34.723 -33.159 -31.018  0.00  0.00    +0.000 HD
ENDBRANCH   4  21
BRANCH  11  24
ATOM     24  N   UNL     1      41.375 -39.022 -28.284  0.00  0.00    -0.358 N 
ATOM     25  H   UNL     1      40.902 -39.855 -28.057  0.00  0.00    +0.000 HD
ATOM     26  H   UNL     1      42.234 -38.811 -27.851  0.00  0.00    +0.000 HD
ENDBRANCH  11  24
BRANCH   1  27
ATOM     27  C   UNL     1      36.543 -38.784 -29.077  0.00  0.00    +0.024 C 
BRANCH  27  28
ATOM     28  C   UNL     1      36.296 -39.516 -30.400  0.00  0.00    -0.035 C 
BRANCH  28  29
ATOM     29  C   UNL     1      35.893 -40.983 -30.209  0.00  0.00    -0.051 C 
BRANCH  29  30
ATOM     30  C   UNL     1      34.980 -41.205 -28.998  0.00  0.00    -0.053 C 
BRANCH  30  31
ATOM     31  C   UNL     1      33.564 -41.595 -29.435  0.00  0.00    -0.053 C 
BRANCH  31  32
ATOM     32  C   UNL     1      33.366 -41.551 -30.955  0.00  0.00    -0.053 C 
BRANCH  32  33
ATOM     33  C   UNL     1      32.716 -40.253 -31.453  0.00  0.00    -0.053 C 
BRANCH  33  34
ATOM     34  C   UNL     1      33.231 -39.844 -32.836  0.00  0.00    -0.055 C 
BRANCH  34  35
ATOM     35  C   UNL     1      34.019 -40.945 -33.576  0.00  0.00    -0.068 C 
BRANCH  35  36
ATOM     36  C   UNL     1      33.083 -41.584 -34.870  0.00  0.00    -0.089 C 
BRANCH  36  38
ATOM     37  C   UNL     1      33.039 -42.994 -34.763  0.00  0.00    -0.101 C 
ATOM     38  N   UNL     1      33.399 -42.347 -35.435  0.00  0.00    +0.374 N 
ATOM     39  C   UNL     1      33.715 -43.109 -36.000  0.00  0.00    -0.101 C 
ATOM     40  C   UNL     1      33.759 -41.700 -36.107  0.00  0.00    -0.101 C 
ENDBRANCH  36  38
ENDBRANCH  35  36
ENDBRANCH  34  35
ENDBRANCH  33  34
ENDBRANCH  32  33
ENDBRANCH  31  32
ENDBRANCH  30  31
ENDBRANCH  29  30
ENDBRANCH  28  29
ENDBRANCH  27  28
ENDBRANCH   1  27
TORSDOF 14
ENDMDL
MODEL 5
REMARK VINA RESULT:    -7.539      2.501      5.004
REMARK INTER + INTRA:         -13.103
REMARK INTER:                 -12.950
REMARK INTRA:                  -0.153
REMARK UNBOUND:                -0.715
REMARK  Name = cpd168.pdb
REMARK  17 active torsions:
REMARK  status: ('A' for Active; 'I' for Inactive)
REMARK    1  A    between atoms: C_1  and  N_2
REMARK    2  A    between atoms: N_2  and  C_3
REMARK    3  A    between atoms: N_2  and  C_4
REMARK    4  A    between atoms: N_2  and  C_5
REMARK    5  A    between atoms: C_5  and  C_6
REMARK    6  A    between atoms: C_6  and  C_7
REMARK    7  A    between atoms: C_7  and  C_8
REMARK    8  A    between atoms: C_8  and  C_9
REMARK    9  A    between atoms: C_9  and  C_10
REMARK   10  A    between atoms: C_10  and  C_11
REMARK   11  A    between atoms: C_11  and  C_12
REMARK   12  A    between atoms: C_12  and  C_13
REMARK   13  A    between atoms: C_13  and  C_14
REMARK   14  A    between atoms: C_14  and  N_15
REMARK   15  A    between atoms: C_16  and  C_17
REMARK   16  A    between atoms: C_24  and  N_25
REMARK   17  A    between atoms: C_32  and  N_33
REMARK                            x       y       z     vdW  Elec       q    Type
REMARK                         _______ _______ _______ _____ _____    ______ ____
ROOT
ATOM      1  N   UNL     1      36.447 -37.286 -29.250  0.00  0.00    -0.339 N 
ATOM      2  C   UNL     1      35.260 -36.636 -29.049  0.00  0.00    +0.051 A 
ATOM      3  C   UNL     1      34.939 -35.498 -29.779  0.00  0.00    -0.016 A 
ATOM      4  C   UNL     1      35.821 -34.984 -30.711  0.00  0.00    +0.036 A 
ATOM      5  C   UNL     1      37.063 -35.625 -30.877  0.00  0.00    +0.020 A 
ATOM      6  C   UNL     1      37.954 -35.241 -31.892  0.00  0.00    -0.050 A 
ATOM      7  C   UNL     1      39.216 -35.817 -32.009  0.00  0.00    -0.053 A 
ATOM      8  C   UNL     1      39.674 -36.715 -31.051  0.00  0.00    -0.016 A 
ATOM      9  C   UNL     1      40.994 -37.183 -31.142  0.00  0.00    -0.052 A 
ATOM     10  C   UNL     1      41.540 -37.988 -30.146  0.00  0.00    -0.040 A 
ATOM     11  C   UNL     1      40.797 -38.267 -29.010  0.00  0.00    +0.025 A 
ATOM     12  C   UNL     1      39.459 -37.860 -28.959  0.00  0.00    -0.031 A 
ATOM     13  C   UNL     1      38.826 -37.117 -29.992  0.00  0.00    +0.008 A 
ATOM     14  C   UNL     1      37.446 -36.689 -30.002  0.00  0.00    +0.059 A 
ENDROOT
BRANCH   2  15
ATOM     15  C   UNL     1      34.330 -37.161 -28.046  0.00  0.00    -0.001 A 
ATOM     16  C   UNL     1      33.172 -37.856 -28.438  0.00  0.00    -0.053 A 
ATOM     17  C   UNL     1      32.287 -38.361 -27.484  0.00  0.00    -0.061 A 
ATOM     18  C   UNL     1      32.550 -38.184 -26.128  0.00  0.00    -0.062 A 
ATOM     19  C   UNL     1      33.698 -37.509 -25.721  0.00  0.00    -0.061 A 
ATOM     20  C   UNL     1      34.587 -37.005 -26.672  0.00  0.00    -0.053 A 
ENDBRANCH   2  15
BRANCH   4  21
ATOM     21  N   UNL     1      35.359 -33.978 -31.570  0.00  0.00    -0.357 N 
ATOM     22  H   UNL     1      35.838 -33.788 -32.408  0.00  0.00    +0.000 HD
ATOM     23  H   UNL     1      34.555 -33.460 -31.334  0.00  0.00    +0.000 HD
ENDBRANCH   4  21
BRANCH  11  24
ATOM     24  N   UNL     1      41.287 -39.131 -28.018  0.00  0.00    -0.358 N 
ATOM     25  H   UNL     1      40.808 -39.966 -27.812  0.00  0.00    +0.000 HD
ATOM     26  H   UNL     1      42.110 -38.903 -27.529  0.00  0.00    +0.000 HD
ENDBRANCH  11  24
BRANCH   1  27
ATOM     27  C   UNL     1      36.494 -38.775 -28.981  0.00  0.00    +0.024 C 
BRANCH  27  28
ATOM     28  C   UNL     1      36.149 -39.550 -30.257  0.00  0.00    -0.035 C 
BRANCH  28  29
ATOM     29  C   UNL     1      35.546 -40.932 -29.975  0.00  0.00    -0.051 C 
BRANCH  29  30
ATOM     30  C   UNL     1      35.614 -41.330 -28.497  0.00  0.00    -0.053 C 
BRANCH  30  31
ATOM     31  C   UNL     1      34.211 -41.474 -27.896  0.00  0.00    -0.053 C 
BRANCH  31  32
ATOM     32  C   UNL     1      34.210 -42.134 -26.512  0.00  0.00    -0.053 C 
BRANCH  32  33
ATOM     33  C   UNL     1      33.216 -41.500 -25.530  0.00  0.00    -0.053 C 
BRANCH  33  34
ATOM     34  C   UNL     1      33.912 -40.940 -24.286  0.00  0.00    -0.055 C 
BRANCH  34  35
ATOM     35  C   UNL     1      32.951 -40.460 -23.178  0.00  0.00    -0.068 C 
BRANCH  35  36
ATOM     36  C   UNL     1      33.560 -39.033 -22.435  0.00  0.00    -0.089 C 
BRANCH  36  38
ATOM     37  C   UNL     1      33.727 -39.190 -21.040  0.00  0.00    -0.101 C 
ATOM     38  N   UNL     1      33.139 -38.629 -21.623  0.00  0.00    +0.374 N 
ATOM     39  C   UNL     1      32.718 -38.226 -20.810  0.00  0.00    -0.101 C 
ATOM     40  C   UNL     1      32.551 -38.069 -22.205  0.00  0.00    -0.101 C 
ENDBRANCH  36  38
ENDBRANCH  35  36
ENDBRANCH  34  35
ENDBRANCH  33  34
ENDBRANCH  32  33
ENDBRANCH  31  32
ENDBRANCH  30  31
ENDBRANCH  29  30
ENDBRANCH  28  29
ENDBRANCH  27  28
ENDBRANCH   1  27
TORSDOF 14
ENDMDL
MODEL 6
REMARK VINA RESULT:    -7.332      2.244      2.831
REMARK INTER + INTRA:         -12.762
REMARK INTER:                 -13.122
REMARK INTRA:                   0.360
REMARK UNBOUND:                -0.715
REMARK  Name = cpd168.pdb
REMARK  17 active torsions:
REMARK  status: ('A' for Active; 'I' for Inactive)
REMARK    1  A    between atoms: C_1  and  N_2
REMARK    2  A    between atoms: N_2  and  C_3
REMARK    3  A    between atoms: N_2  and  C_4
REMARK    4  A    between atoms: N_2  and  C_5
REMARK    5  A    between atoms: C_5  and  C_6
REMARK    6  A    between atoms: C_6  and  C_7
REMARK    7  A    between atoms: C_7  and  C_8
REMARK    8  A    between atoms: C_8  and  C_9
REMARK    9  A    between atoms: C_9  and  C_10
REMARK   10  A    between atoms: C_10  and  C_11
REMARK   11  A    between atoms: C_11  and  C_12
REMARK   12  A    between atoms: C_12  and  C_13
REMARK   13  A    between atoms: C_13  and  C_14
REMARK   14  A    between atoms: C_14  and  N_15
REMARK   15  A    between atoms: C_16  and  C_17
REMARK   16  A    between atoms: C_24  and  N_25
REMARK   17  A    between atoms: C_32  and  N_33
REMARK                            x       y       z     vdW  Elec       q    Type
REMARK                         _______ _______ _______ _____ _____    ______ ____
ROOT
ATOM      1  N   UNL     1      36.861 -37.342 -29.412  0.00  0.00    -0.339 N 
ATOM      2  C   UNL     1      35.684 -36.721 -29.093  0.00  0.00    +0.051 A 
ATOM      3  C   UNL     1      35.300 -35.549 -29.734  0.00  0.00    -0.016 A 
ATOM      4  C   UNL     1      36.110 -34.972 -30.695  0.00  0.00    +0.036 A 
ATOM      5  C   UNL     1      37.344 -35.585 -30.982  0.00  0.00    +0.020 A 
ATOM      6  C   UNL     1      38.158 -35.133 -32.034  0.00  0.00    -0.050 A 
ATOM      7  C   UNL     1      39.414 -35.683 -32.269  0.00  0.00    -0.053 A 
ATOM      8  C   UNL     1      39.948 -36.626 -31.397  0.00  0.00    -0.016 A 
ATOM      9  C   UNL     1      41.263 -37.070 -31.605  0.00  0.00    -0.052 A 
ATOM     10  C   UNL     1      41.886 -37.920 -30.695  0.00  0.00    -0.040 A 
ATOM     11  C   UNL     1      41.227 -38.272 -29.529  0.00  0.00    +0.025 A 
ATOM     12  C   UNL     1      39.892 -37.887 -29.362  0.00  0.00    -0.031 A 
ATOM     13  C   UNL     1      39.180 -37.098 -30.306  0.00  0.00    +0.008 A 
ATOM     14  C   UNL     1      37.799 -36.690 -30.197  0.00  0.00    +0.059 A 
ENDROOT
BRANCH   2  15
ATOM     15  C   UNL     1      34.832 -37.314 -28.059  0.00  0.00    -0.001 A 
ATOM     16  C   UNL     1      33.534 -37.757 -28.369  0.00  0.00    -0.053 A 
ATOM     17  C   UNL     1      32.722 -38.326 -27.386  0.00  0.00    -0.061 A 
ATOM     18  C   UNL     1      33.197 -38.466 -26.085  0.00  0.00    -0.062 A 
ATOM     19  C   UNL     1      34.485 -38.044 -25.763  0.00  0.00    -0.061 A 
ATOM     20  C   UNL     1      35.301 -37.476 -26.743  0.00  0.00    -0.053 A 
ENDBRANCH   2  15
BRANCH   4  21
ATOM     21  N   UNL     1      35.578 -33.927 -31.462  0.00  0.00    -0.357 N 
ATOM     22  H   UNL     1      36.109 -33.531 -32.190  0.00  0.00    +0.000 HD
ATOM     23  H   UNL     1      34.674 -33.587 -31.272  0.00  0.00    +0.000 HD
ENDBRANCH   4  21
BRANCH  11  24
ATOM     24  N   UNL     1      41.794 -39.182 -28.623  0.00  0.00    -0.358 N 
ATOM     25  H   UNL     1      42.725 -39.065 -28.326  0.00  0.00    +0.000 HD
ATOM     26  H   UNL     1      41.262 -39.938 -28.285  0.00  0.00    +0.000 HD
ENDBRANCH  11  24
BRANCH   1  27
ATOM     27  C   UNL     1      36.942 -38.843 -29.231  0.00  0.00    +0.024 C 
BRANCH  27  28
ATOM     28  C   UNL     1      36.374 -39.552 -30.464  0.00  0.00    -0.035 C 
BRANCH  28  29
ATOM     29  C   UNL     1      35.799 -40.938 -30.148  0.00  0.00    -0.051 C 
BRANCH  29  30
ATOM     30  C   UNL     1      35.487 -41.137 -28.661  0.00  0.00    -0.053 C 
BRANCH  30  31
ATOM     31  C   UNL     1      34.013 -41.501 -28.448  0.00  0.00    -0.053 C 
BRANCH  31  32
ATOM     32  C   UNL     1      33.698 -42.966 -28.773  0.00  0.00    -0.053 C 
BRANCH  32  33
ATOM     33  C   UNL     1      34.326 -43.962 -27.789  0.00  0.00    -0.053 C 
BRANCH  33  34
ATOM     34  C   UNL     1      33.760 -45.375 -27.959  0.00  0.00    -0.055 C 
BRANCH  34  35
ATOM     35  C   UNL     1      32.408 -45.437 -28.699  0.00  0.00    -0.068 C 
BRANCH  35  36
ATOM     36  C   UNL     1      32.578 -46.282 -30.188  0.00  0.00    -0.089 C 
BRANCH  36  38
ATOM     37  C   UNL     1      31.925 -45.567 -31.219  0.00  0.00    -0.101 C 
ATOM     38  N   UNL     1      31.803 -46.464 -30.794  0.00  0.00    +0.374 N 
ATOM     39  C   UNL     1      31.028 -46.645 -31.399  0.00  0.00    -0.101 C 
ATOM     40  C   UNL     1      31.681 -47.360 -30.369  0.00  0.00    -0.101 C 
ENDBRANCH  36  38
ENDBRANCH  35  36
ENDBRANCH  34  35
ENDBRANCH  33  34
ENDBRANCH  32  33
ENDBRANCH  31  32
ENDBRANCH  30  31
ENDBRANCH  29  30
ENDBRANCH  28  29
ENDBRANCH  27  28
ENDBRANCH   1  27
TORSDOF 14
ENDMDL
MODEL 7
REMARK VINA RESULT:    -7.188      2.657      6.729
REMARK INTER + INTRA:         -12.526
REMARK INTER:                 -12.004
REMARK INTRA:                  -0.522
REMARK UNBOUND:                -0.715
REMARK  Name = cpd168.pdb
REMARK  17 active torsions:
REMARK  status: ('A' for Active; 'I' for Inactive)
REMARK    1  A    between atoms: C_1  and  N_2
REMARK    2  A    between atoms: N_2  and  C_3
REMARK    3  A    between atoms: N_2  and  C_4
REMARK    4  A    between atoms: N_2  and  C_5
REMARK    5  A    between atoms: C_5  and  C_6
REMARK    6  A    between atoms: C_6  and  C_7
REMARK    7  A    between atoms: C_7  and  C_8
REMARK    8  A    between atoms: C_8  and  C_9
REMARK    9  A    between atoms: C_9  and  C_10
REMARK   10  A    between atoms: C_10  and  C_11
REMARK   11  A    between atoms: C_11  and  C_12
REMARK   12  A    between atoms: C_12  and  C_13
REMARK   13  A    between atoms: C_13  and  C_14
REMARK   14  A    between atoms: C_14  and  N_15
REMARK   15  A    between atoms: C_16  and  C_17
REMARK   16  A    between atoms: C_24  and  N_25
REMARK   17  A    between atoms: C_32  and  N_33
REMARK                            x       y       z     vdW  Elec       q    Type
REMARK                         _______ _______ _______ _____ _____    ______ ____
ROOT
ATOM      1  N   UNL     1      35.455 -35.330 -29.950  0.00  0.00    -0.339 N 
ATOM      2  C   UNL     1      36.541 -36.109 -29.659  0.00  0.00    +0.051 A 
ATOM      3  C   UNL     1      36.541 -36.945 -28.548  0.00  0.00    -0.016 A 
ATOM      4  C   UNL     1      35.450 -36.993 -27.701  0.00  0.00    +0.036 A 
ATOM      5  C   UNL     1      34.356 -36.151 -27.975  0.00  0.00    +0.020 A 
ATOM      6  C   UNL     1      33.164 -36.238 -27.237  0.00  0.00    -0.050 A 
ATOM      7  C   UNL     1      32.110 -35.355 -27.451  0.00  0.00    -0.053 A 
ATOM      8  C   UNL     1      32.251 -34.285 -28.329  0.00  0.00    -0.016 A 
ATOM      9  C   UNL     1      31.209 -33.351 -28.429  0.00  0.00    -0.052 A 
ATOM     10  C   UNL     1      31.347 -32.201 -29.201  0.00  0.00    -0.040 A 
ATOM     11  C   UNL     1      32.558 -31.934 -29.817  0.00  0.00    +0.025 A 
ATOM     12  C   UNL     1      33.568 -32.902 -29.775  0.00  0.00    -0.031 A 
ATOM     13  C   UNL     1      33.442 -34.136 -29.079  0.00  0.00    +0.008 A 
ATOM     14  C   UNL     1      34.440 -35.178 -29.019  0.00  0.00    +0.059 A 
ENDROOT
BRANCH   2  15
ATOM     15  C   UNL     1      37.711 -36.045 -30.539  0.00  0.00    -0.001 A 
ATOM     16  C   UNL     1      38.750 -36.985 -30.417  0.00  0.00    -0.053 A 
ATOM     17  C   UNL     1      39.863 -36.928 -31.259  0.00  0.00    -0.061 A 
ATOM     18  C   UNL     1      39.949 -35.939 -32.234  0.00  0.00    -0.062 A 
ATOM     19  C   UNL     1      38.924 -35.008 -32.377  0.00  0.00    -0.061 A 
ATOM     20  C   UNL     1      37.808 -35.062 -31.540  0.00  0.00    -0.053 A 
ENDBRANCH   2  15
BRANCH   4  21
ATOM     21  N   UNL     1      35.412 -38.007 -26.734  0.00  0.00    -0.357 N 
ATOM     22  H   UNL     1      34.961 -37.849 -25.874  0.00  0.00    +0.000 HD
ATOM     23  H   UNL     1      35.837 -38.876 -26.916  0.00  0.00    +0.000 HD
ENDBRANCH   4  21
BRANCH  11  24
ATOM     24  N   UNL     1      32.713 -30.822 -30.659  0.00  0.00    -0.358 N 
ATOM     25  H   UNL     1      33.532 -30.278 -30.610  0.00  0.00    +0.000 HD
ATOM     26  H   UNL     1      32.002 -30.585 -31.298  0.00  0.00    +0.000 HD
ENDBRANCH  11  24
BRANCH   1  27
ATOM     27  C   UNL     1      35.206 -34.977 -31.401  0.00  0.00    +0.024 C 
BRANCH  27  28
ATOM     28  C   UNL     1      34.297 -36.027 -32.049  0.00  0.00    -0.035 C 
BRANCH  28  29
ATOM     29  C   UNL     1      33.096 -35.414 -32.777  0.00  0.00    -0.051 C 
BRANCH  29  30
ATOM     30  C   UNL     1      31.821 -35.393 -31.927  0.00  0.00    -0.053 C 
BRANCH  30  31
ATOM     31  C   UNL     1      31.224 -36.798 -31.788  0.00  0.00    -0.053 C 
BRANCH  31  32
ATOM     32  C   UNL     1      30.814 -37.142 -30.351  0.00  0.00    -0.053 C 
BRANCH  32  33
ATOM     33  C   UNL     1      31.248 -38.546 -29.908  0.00  0.00    -0.053 C 
BRANCH  33  34
ATOM     34  C   UNL     1      32.403 -39.087 -30.756  0.00  0.00    -0.055 C 
BRANCH  34  35
ATOM     35  C   UNL     1      33.786 -39.004 -30.077  0.00  0.00    -0.068 C 
BRANCH  35  36
ATOM     36  C   UNL     1      34.541 -40.550 -30.065  0.00  0.00    -0.089 C 
BRANCH  36  38
ATOM     37  C   UNL     1      34.770 -40.971 -28.734  0.00  0.00    -0.101 C 
ATOM     38  N   UNL     1      35.353 -40.746 -29.515  0.00  0.00    +0.374 N 
ATOM     39  C   UNL     1      36.165 -40.942 -28.965  0.00  0.00    -0.101 C 
ATOM     40  C   UNL     1      35.936 -40.521 -30.296  0.00  0.00    -0.101 C 
ENDBRANCH  36  38
ENDBRANCH  35  36
ENDBRANCH  34  35
ENDBRANCH  33  34
ENDBRANCH  32  33
ENDBRANCH  31  32
ENDBRANCH  30  31
ENDBRANCH  29  30
ENDBRANCH  28  29
ENDBRANCH  27  28
ENDBRANCH   1  27
TORSDOF 14
ENDMDL
MODEL 8
REMARK VINA RESULT:    -7.031      1.540      2.942
REMARK INTER + INTRA:         -12.268
REMARK INTER:                 -12.381
REMARK INTRA:                   0.114
REMARK UNBOUND:                -0.715
REMARK  Name = cpd168.pdb
REMARK  17 active torsions:
REMARK  status: ('A' for Active; 'I' for Inactive)
REMARK    1  A    between atoms: C_1  and  N_2
REMARK    2  A    between atoms: N_2  and  C_3
REMARK    3  A    between atoms: N_2  and  C_4
REMARK    4  A    between atoms: N_2  and  C_5
REMARK    5  A    between atoms: C_5  and  C_6
REMARK    6  A    between atoms: C_6  and  C_7
REMARK    7  A    between atoms: C_7  and  C_8
REMARK    8  A    between atoms: C_8  and  C_9
REMARK    9  A    between atoms: C_9  and  C_10
REMARK   10  A    between atoms: C_10  and  C_11
REMARK   11  A    between atoms: C_11  and  C_12
REMARK   12  A    between atoms: C_12  and  C_13
REMARK   13  A    between atoms: C_13  and  C_14
REMARK   14  A    between atoms: C_14  and  N_15
REMARK   15  A    between atoms: C_16  and  C_17
REMARK   16  A    between atoms: C_24  and  N_25
REMARK   17  A    between atoms: C_32  and  N_33
REMARK                            x       y       z     vdW  Elec       q    Type
REMARK                         _______ _______ _______ _____ _____    ______ ____
ROOT
ATOM      1  N   UNL     1      36.203 -37.077 -29.171  0.00  0.00    -0.339 N 
ATOM      2  C   UNL     1      35.046 -36.375 -28.972  0.00  0.00    +0.051 A 
ATOM      3  C   UNL     1      34.789 -35.209 -29.683  0.00  0.00    -0.016 A 
ATOM      4  C   UNL     1      35.707 -34.720 -30.594  0.00  0.00    +0.036 A 
ATOM      5  C   UNL     1      36.919 -35.416 -30.756  0.00  0.00    +0.020 A 
ATOM      6  C   UNL     1      37.842 -35.056 -31.753  0.00  0.00    -0.050 A 
ATOM      7  C   UNL     1      39.075 -35.689 -31.865  0.00  0.00    -0.053 A 
ATOM      8  C   UNL     1      39.478 -36.626 -30.919  0.00  0.00    -0.016 A 
ATOM      9  C   UNL     1      40.775 -37.155 -31.003  0.00  0.00    -0.052 A 
ATOM     10  C   UNL     1      41.268 -38.005 -30.016  0.00  0.00    -0.040 A 
ATOM     11  C   UNL     1      40.498 -38.269 -28.896  0.00  0.00    +0.025 A 
ATOM     12  C   UNL     1      39.180 -37.799 -28.853  0.00  0.00    -0.031 A 
ATOM     13  C   UNL     1      38.597 -37.008 -29.879  0.00  0.00    +0.008 A 
ATOM     14  C   UNL     1      37.240 -36.514 -29.898  0.00  0.00    +0.059 A 
ENDROOT
BRANCH   2  15
ATOM     15  C   UNL     1      34.078 -36.874 -27.992  0.00  0.00    -0.001 A 
ATOM     16  C   UNL     1      34.421 -36.965 -26.631  0.00  0.00    -0.053 A 
ATOM     17  C   UNL     1      33.498 -37.436 -25.694  0.00  0.00    -0.061 A 
ATOM     18  C   UNL     1      32.223 -37.816 -26.103  0.00  0.00    -0.062 A 
ATOM     19  C   UNL     1      31.863 -37.722 -27.445  0.00  0.00    -0.061 A 
ATOM     20  C   UNL     1      32.781 -37.249 -28.385  0.00  0.00    -0.053 A 
ENDBRANCH   2  15
BRANCH   4  21
ATOM     21  N   UNL     1      35.305 -33.676 -31.438  0.00  0.00    -0.357 N 
ATOM     22  H   UNL     1      34.511 -33.784 -32.010  0.00  0.00    +0.000 HD
ATOM     23  H   UNL     1      35.816 -32.835 -31.459  0.00  0.00    +0.000 HD
ENDBRANCH   4  21
BRANCH  11  24
ATOM     24  N   UNL     1      40.933 -39.174 -27.915  0.00  0.00    -0.358 N 
ATOM     25  H   UNL     1      41.105 -38.861 -26.998  0.00  0.00    +0.000 HD
ATOM     26  H   UNL     1      41.066 -40.123 -28.144  0.00  0.00    +0.000 HD
ENDBRANCH  11  24
BRANCH   1  27
ATOM     27  C   UNL     1      36.175 -38.572 -28.931  0.00  0.00    +0.024 C 
BRANCH  27  28
ATOM     28  C   UNL     1      35.340 -39.262 -30.014  0.00  0.00    -0.035 C 
BRANCH  28  29
ATOM     29  C   UNL     1      36.053 -40.461 -30.649  0.00  0.00    -0.051 C 
BRANCH  29  30
ATOM     30  C   UNL     1      35.505 -40.824 -32.035  0.00  0.00    -0.053 C 
BRANCH  30  31
ATOM     31  C   UNL     1      34.154 -41.538 -31.927  0.00  0.00    -0.053 C 
BRANCH  31  32
ATOM     32  C   UNL     1      32.961 -40.629 -32.249  0.00  0.00    -0.053 C 
BRANCH  32  33
ATOM     33  C   UNL     1      32.080 -40.318 -31.033  0.00  0.00    -0.053 C 
BRANCH  33  34
ATOM     34  C   UNL     1      31.929 -41.526 -30.104  0.00  0.00    -0.055 C 
BRANCH  34  35
ATOM     35  C   UNL     1      32.606 -41.363 -28.727  0.00  0.00    -0.068 C 
BRANCH  35  36
ATOM     36  C   UNL     1      33.525 -42.765 -28.341  0.00  0.00    -0.089 C 
BRANCH  36  38
ATOM     37  C   UNL     1      34.933 -42.717 -28.221  0.00  0.00    -0.101 C 
ATOM     38  N   UNL     1      34.171 -42.789 -27.578  0.00  0.00    +0.374 N 
ATOM     39  C   UNL     1      34.817 -42.814 -26.815  0.00  0.00    -0.101 C 
ATOM     40  C   UNL     1      33.408 -42.861 -26.935  0.00  0.00    -0.101 C 
ENDBRANCH  36  38
ENDBRANCH  35  36
ENDBRANCH  34  35
ENDBRANCH  33  34
ENDBRANCH  32  33
ENDBRANCH  31  32
ENDBRANCH  30  31
ENDBRANCH  29  30
ENDBRANCH  28  29
ENDBRANCH  27  28
ENDBRANCH   1  27
TORSDOF 14
ENDMDL
MODEL 9
REMARK VINA RESULT:    -6.975     18.592     22.926
REMARK INTER + INTRA:         -12.175
REMARK INTER:                 -11.083
REMARK INTRA:                  -1.092
REMARK UNBOUND:                -0.715
REMARK  Name = cpd168.pdb
REMARK  17 active torsions:
REMARK  status: ('A' for Active; 'I' for Inactive)
REMARK    1  A    between atoms: C_1  and  N_2
REMARK    2  A    between atoms: N_2  and  C_3
REMARK    3  A    between atoms: N_2  and  C_4
REMARK    4  A    between atoms: N_2  and  C_5
REMARK    5  A    between atoms: C_5  and  C_6
REMARK    6  A    between atoms: C_6  and  C_7
REMARK    7  A    between atoms: C_7  and  C_8
REMARK    8  A    between atoms: C_8  and  C_9
REMARK    9  A    between atoms: C_9  and  C_10
REMARK   10  A    between atoms: C_10  and  C_11
REMARK   11  A    between atoms: C_11  and  C_12
REMARK   12  A    between atoms: C_12  and  C_13
REMARK   13  A    between atoms: C_13  and  C_14
REMARK   14  A    between atoms: C_14  and  N_15
REMARK   15  A    between atoms: C_16  and  C_17
REMARK   16  A    between atoms: C_24  and  N_25
REMARK   17  A    between atoms: C_32  and  N_33
REMARK                            x       y       z     vdW  Elec       q    Type
REMARK                         _______ _______ _______ _____ _____    ______ ____
ROOT
ATOM      1  N   UNL     1      43.205 -20.518 -38.114  0.00  0.00    -0.339 N 
ATOM      2  C   UNL     1      43.289 -21.162 -39.319  0.00  0.00    +0.051 A 
ATOM      3  C   UNL     1      42.322 -22.085 -39.701  0.00  0.00    -0.016 A 
ATOM      4  C   UNL     1      41.264 -22.387 -38.864  0.00  0.00    +0.036 A 
ATOM      5  C   UNL     1      41.211 -21.762 -37.605  0.00  0.00    +0.020 A 
ATOM      6  C   UNL     1      40.103 -21.919 -36.756  0.00  0.00    -0.050 A 
ATOM      7  C   UNL     1      40.081 -21.369 -35.478  0.00  0.00    -0.053 A 
ATOM      8  C   UNL     1      41.208 -20.738 -34.961  0.00  0.00    -0.016 A 
ATOM      9  C   UNL     1      41.184 -20.300 -33.628  0.00  0.00    -0.052 A 
ATOM     10  C   UNL     1      42.322 -19.771 -33.026  0.00  0.00    -0.040 A 
ATOM     11  C   UNL     1      43.517 -19.748 -33.727  0.00  0.00    +0.025 A 
ATOM     12  C   UNL     1      43.518 -20.117 -35.077  0.00  0.00    -0.031 A 
ATOM     13  C   UNL     1      42.361 -20.574 -35.765  0.00  0.00    +0.008 A 
ATOM     14  C   UNL     1      42.299 -20.948 -37.159  0.00  0.00    +0.059 A 
ENDROOT
BRANCH   2  15
ATOM     15  C   UNL     1      44.419 -20.864 -40.201  0.00  0.00    -0.001 A 
ATOM     16  C   UNL     1      45.737 -21.142 -39.795  0.00  0.00    -0.053 A 
ATOM     17  C   UNL     1      46.815 -20.863 -40.637  0.00  0.00    -0.061 A 
ATOM     18  C   UNL     1      46.592 -20.308 -41.894  0.00  0.00    -0.062 A 
ATOM     19  C   UNL     1      45.293 -20.036 -42.317  0.00  0.00    -0.061 A 
ATOM     20  C   UNL     1      44.212 -20.316 -41.480  0.00  0.00    -0.053 A 
ENDBRANCH   2  15
BRANCH   4  21
ATOM     21  N   UNL     1      40.209 -23.147 -39.386  0.00  0.00    -0.357 N 
ATOM     22  H   UNL     1      39.771 -23.829 -38.828  0.00  0.00    +0.000 HD
ATOM     23  H   UNL     1      39.906 -22.999 -40.312  0.00  0.00    +0.000 HD
ENDBRANCH   4  21
BRANCH  11  24
ATOM     24  N   UNL     1      44.667 -19.159 -33.179  0.00  0.00    -0.358 N 
ATOM     25  H   UNL     1      45.519 -19.652 -33.178  0.00  0.00    +0.000 HD
ATOM     26  H   UNL     1      44.622 -18.254 -32.795  0.00  0.00    +0.000 HD
ENDBRANCH  11  24
BRANCH   1  27
ATOM     27  C   UNL     1      43.817 -19.137 -38.006  0.00  0.00    +0.024 C 
BRANCH  27  28
ATOM     28  C   UNL     1      42.773 -18.071 -38.355  0.00  0.00    -0.035 C 
BRANCH  28  29
ATOM     29  C   UNL     1      42.940 -17.508 -39.771  0.00  0.00    -0.051 C 
BRANCH  29  30
ATOM     30  C   UNL     1      43.254 -16.007 -39.790  0.00  0.00    -0.053 C 
BRANCH  30  31
ATOM     31  C   UNL     1      44.766 -15.758 -39.847  0.00  0.00    -0.053 C 
BRANCH  31  32
ATOM     32  C   UNL     1      45.530 -16.845 -40.613  0.00  0.00    -0.053 C 
BRANCH  32  33
ATOM     33  C   UNL     1      46.912 -17.155 -40.025  0.00  0.00    -0.053 C 
BRANCH  33  34
ATOM     34  C   UNL     1      46.913 -17.101 -38.494  0.00  0.00    -0.055 C 
BRANCH  34  35
ATOM     35  C   UNL     1      47.285 -18.432 -37.808  0.00  0.00    -0.068 C 
BRANCH  35  36
ATOM     36  C   UNL     1      47.048 -18.316 -36.108  0.00  0.00    -0.089 C 
BRANCH  36  38
ATOM     37  C   UNL     1      48.008 -18.110 -35.089  0.00  0.00    -0.101 C 
ATOM     38  N   UNL     1      47.527 -18.906 -35.458  0.00  0.00    +0.374 N 
ATOM     39  C   UNL     1      48.006 -19.496 -34.808  0.00  0.00    -0.101 C 
ATOM     40  C   UNL     1      47.046 -19.702 -35.826  0.00  0.00    -0.101 C 
ENDBRANCH  36  38
ENDBRANCH  35  36
ENDBRANCH  34  35
ENDBRANCH  33  34
ENDBRANCH  32  33
ENDBRANCH  31  32
ENDBRANCH  30  31
ENDBRANCH  29  30
ENDBRANCH  28  29
ENDBRANCH  27  28
ENDBRANCH   1  27
TORSDOF 14
ENDMDL
MODEL 10
REMARK VINA RESULT:    -6.804      2.188      3.431
REMARK INTER + INTRA:         -11.895
REMARK INTER:                 -11.361
REMARK INTRA:                  -0.534
REMARK UNBOUND:                -0.715
REMARK  Name = cpd168.pdb
REMARK  17 active torsions:
REMARK  status: ('A' for Active; 'I' for Inactive)
REMARK    1  A    between atoms: C_1  and  N_2
REMARK    2  A    between atoms: N_2  and  C_3
REMARK    3  A    between atoms: N_2  and  C_4
REMARK    4  A    between atoms: N_2  and  C_5
REMARK    5  A    between atoms: C_5  and  C_6
REMARK    6  A    between atoms: C_6  and  C_7
REMARK    7  A    between atoms: C_7  and  C_8
REMARK    8  A    between atoms: C_8  and  C_9
REMARK    9  A    between atoms: C_9  and  C_10
REMARK   10  A    between atoms: C_10  and  C_11
REMARK   11  A    between atoms: C_11  and  C_12
REMARK   12  A    between atoms: C_12  and  C_13
REMARK   13  A    between atoms: C_13  and  C_14
REMARK   14  A    between atoms: C_14  and  N_15
REMARK   15  A    between atoms: C_16  and  C_17
REMARK   16  A    between atoms: C_24  and  N_25
REMARK   17  A    between atoms: C_32  and  N_33
REMARK                            x       y       z     vdW  Elec       q    Type
REMARK                         _______ _______ _______ _____ _____    ______ ____
ROOT
ATOM      1  N   UNL     1      36.211 -37.158 -29.282  0.00  0.00    -0.339 N 
ATOM      2  C   UNL     1      35.037 -36.476 -29.117  0.00  0.00    +0.051 A 
ATOM      3  C   UNL     1      34.778 -35.317 -29.839  0.00  0.00    -0.016 A 
ATOM      4  C   UNL     1      35.710 -34.816 -30.728  0.00  0.00    +0.036 A 
ATOM      5  C   UNL     1      36.939 -35.491 -30.856  0.00  0.00    +0.020 A 
ATOM      6  C   UNL     1      37.880 -35.118 -31.830  0.00  0.00    -0.050 A 
ATOM      7  C   UNL     1      39.127 -35.730 -31.907  0.00  0.00    -0.053 A 
ATOM      8  C   UNL     1      39.522 -36.656 -30.947  0.00  0.00    -0.016 A 
ATOM      9  C   UNL     1      40.829 -37.162 -30.995  0.00  0.00    -0.052 A 
ATOM     10  C   UNL     1      41.312 -37.999 -29.992  0.00  0.00    -0.040 A 
ATOM     11  C   UNL     1      40.518 -38.272 -28.891  0.00  0.00    +0.025 A 
ATOM     12  C   UNL     1      39.191 -37.826 -28.884  0.00  0.00    -0.031 A 
ATOM     13  C   UNL     1      38.621 -37.049 -29.929  0.00  0.00    +0.008 A 
ATOM     14  C   UNL     1      37.256 -36.579 -29.985  0.00  0.00    +0.059 A 
ENDROOT
BRANCH   2  15
ATOM     15  C   UNL     1      34.053 -36.988 -28.159  0.00  0.00    -0.001 A 
ATOM     16  C   UNL     1      32.847 -37.556 -28.607  0.00  0.00    -0.053 A 
ATOM     17  C   UNL     1      31.911 -38.049 -27.696  0.00  0.00    -0.061 A 
ATOM     18  C   UNL     1      32.169 -37.987 -26.329  0.00  0.00    -0.062 A 
ATOM     19  C   UNL     1      33.363 -37.439 -25.869  0.00  0.00    -0.061 A 
ATOM     20  C   UNL     1      34.304 -36.947 -26.775  0.00  0.00    -0.053 A 
ENDBRANCH   2  15
BRANCH   4  21
ATOM     21  N   UNL     1      35.312 -33.783 -31.587  0.00  0.00    -0.357 N 
ATOM     22  H   UNL     1      35.475 -32.845 -31.337  0.00  0.00    +0.000 HD
ATOM     23  H   UNL     1      34.868 -33.995 -32.440  0.00  0.00    +0.000 HD
ENDBRANCH   4  21
BRANCH  11  24
ATOM     24  N   UNL     1      40.943 -39.166 -27.895  0.00  0.00    -0.358 N 
ATOM     25  H   UNL     1      41.526 -39.924 -28.131  0.00  0.00    +0.000 HD
ATOM     26  H   UNL     1      40.659 -39.036 -26.962  0.00  0.00    +0.000 HD
ENDBRANCH  11  24
BRANCH   1  27
ATOM     27  C   UNL     1      36.203 -38.652 -29.037  0.00  0.00    +0.024 C 
BRANCH  27  28
ATOM     28  C   UNL     1      36.252 -39.404 -30.370  0.00  0.00    -0.035 C 
BRANCH  28  29
ATOM     29  C   UNL     1      34.863 -39.670 -30.961  0.00  0.00    -0.051 C 
BRANCH  29  30
ATOM     30  C   UNL     1      34.378 -41.107 -30.740  0.00  0.00    -0.053 C 
BRANCH  30  31
ATOM     31  C   UNL     1      33.424 -41.194 -29.543  0.00  0.00    -0.053 C 
BRANCH  31  32
ATOM     32  C   UNL     1      34.052 -41.866 -28.316  0.00  0.00    -0.053 C 
BRANCH  32  33
ATOM     33  C   UNL     1      34.095 -40.965 -27.076  0.00  0.00    -0.053 C 
BRANCH  33  34
ATOM     34  C   UNL     1      33.261 -41.531 -25.923  0.00  0.00    -0.055 C 
BRANCH  34  35
ATOM     35  C   UNL     1      31.781 -41.793 -26.273  0.00  0.00    -0.068 C 
BRANCH  35  36
ATOM     36  C   UNL     1      31.451 -43.481 -26.254  0.00  0.00    -0.089 C 
BRANCH  36  38
ATOM     37  C   UNL     1      30.838 -43.879 -27.465  0.00  0.00    -0.101 C 
ATOM     38  N   UNL     1      30.558 -43.856 -26.505  0.00  0.00    +0.374 N 
ATOM     39  C   UNL     1      29.666 -44.231 -26.756  0.00  0.00    -0.101 C 
ATOM     40  C   UNL     1      30.278 -43.833 -25.546  0.00  0.00    -0.101 C 
ENDBRANCH  36  38
ENDBRANCH  35  36
ENDBRANCH  34  35
ENDBRANCH  33  34
ENDBRANCH  32  33
ENDBRANCH  31  32
ENDBRANCH  30  31
ENDBRANCH  29  30
ENDBRANCH  28  29
ENDBRANCH  27  28
ENDBRANCH   1  27
TORSDOF 14
ENDMDL
MODEL 11
REMARK VINA RESULT:    -6.788      3.373      6.201
REMARK INTER + INTRA:         -11.869
REMARK INTER:                 -10.748
REMARK INTRA:                  -1.121
REMARK UNBOUND:                -0.715
REMARK  Name = cpd168.pdb
REMARK  17 active torsions:
REMARK  status: ('A' for Active; 'I' for Inactive)
REMARK    1  A    between atoms: C_1  and  N_2
REMARK    2  A    between atoms: N_2  and  C_3
REMARK    3  A    between atoms: N_2  and  C_4
REMARK    4  A    between atoms: N_2  and  C_5
REMARK    5  A    between atoms: C_5  and  C_6
REMARK    6  A    between atoms: C_6  and  C_7
REMARK    7  A    between atoms: C_7  and  C_8
REMARK    8  A    between atoms: C_8  and  C_9
REMARK    9  A    between atoms: C_9  and  C_10
REMARK   10  A    between atoms: C_10  and  C_11
REMARK   11  A    between atoms: C_11  and  C_12
REMARK   12  A    between atoms: C_12  and  C_13
REMARK   13  A    between atoms: C_13  and  C_14
REMARK   14  A    between atoms: C_14  and  N_15
REMARK   15  A    between atoms: C_16  and  C_17
REMARK   16  A    between atoms: C_24  and  N_25
REMARK   17  A    between atoms: C_32  and  N_33
REMARK                            x       y       z     vdW  Elec       q    Type
REMARK                         _______ _______ _______ _____ _____    ______ ____
ROOT
ATOM      1  N   UNL     1      32.874 -34.619 -29.500  0.00  0.00    -0.339 N 
ATOM      2  C   UNL     1      32.915 -33.521 -30.316  0.00  0.00    +0.051 A 
ATOM      3  C   UNL     1      34.103 -33.126 -30.920  0.00  0.00    -0.016 A 
ATOM      4  C   UNL     1      35.275 -33.822 -30.694  0.00  0.00    +0.036 A 
ATOM      5  C   UNL     1      35.240 -34.919 -29.813  0.00  0.00    +0.020 A 
ATOM      6  C   UNL     1      36.358 -35.751 -29.635  0.00  0.00    -0.050 A 
ATOM      7  C   UNL     1      36.353 -36.787 -28.706  0.00  0.00    -0.053 A 
ATOM      8  C   UNL     1      35.275 -36.959 -27.844  0.00  0.00    -0.016 A 
ATOM      9  C   UNL     1      35.359 -37.941 -26.846  0.00  0.00    -0.052 A 
ATOM     10  C   UNL     1      34.361 -38.075 -25.885  0.00  0.00    -0.040 A 
ATOM     11  C   UNL     1      33.308 -37.175 -25.865  0.00  0.00    +0.025 A 
ATOM     12  C   UNL     1      33.191 -36.246 -26.905  0.00  0.00    -0.031 A 
ATOM     13  C   UNL     1      34.133 -36.132 -27.963  0.00  0.00    +0.008 A 
ATOM     14  C   UNL     1      34.052 -35.208 -29.071  0.00  0.00    +0.059 A 
ENDROOT
BRANCH   2  15
ATOM     15  C   UNL     1      31.681 -32.765 -30.542  0.00  0.00    -0.001 A 
ATOM     16  C   UNL     1      30.991 -32.868 -31.763  0.00  0.00    -0.053 A 
ATOM     17  C   UNL     1      29.812 -32.151 -31.978  0.00  0.00    -0.061 A 
ATOM     18  C   UNL     1      29.305 -31.328 -30.976  0.00  0.00    -0.062 A 
ATOM     19  C   UNL     1      29.968 -31.223 -29.756  0.00  0.00    -0.061 A 
ATOM     20  C   UNL     1      31.146 -31.940 -29.535  0.00  0.00    -0.053 A 
ENDBRANCH   2  15
BRANCH   4  21
ATOM     21  N   UNL     1      36.385 -33.519 -31.494  0.00  0.00    -0.357 N 
ATOM     22  H   UNL     1      37.142 -33.017 -31.116  0.00  0.00    +0.000 HD
ATOM     23  H   UNL     1      36.407 -33.809 -32.435  0.00  0.00    +0.000 HD
ENDBRANCH   4  21
BRANCH  11  24
ATOM     24  N   UNL     1      32.248 -37.321 -24.956  0.00  0.00    -0.358 N 
ATOM     25  H   UNL     1      31.325 -37.408 -25.286  0.00  0.00    +0.000 HD
ATOM     26  H   UNL     1      32.428 -37.336 -23.988  0.00  0.00    +0.000 HD
ENDBRANCH  11  24
BRANCH   1  27
ATOM     27  C   UNL     1      31.571 -35.385 -29.408  0.00  0.00    +0.024 C 
BRANCH  27  28
ATOM     28  C   UNL     1      31.580 -36.558 -30.393  0.00  0.00    -0.035 C 
BRANCH  28  29
ATOM     29  C   UNL     1      31.548 -37.925 -29.698  0.00  0.00    -0.051 C 
BRANCH  29  30
ATOM     30  C   UNL     1      32.636 -38.882 -30.199  0.00  0.00    -0.053 C 
BRANCH  30  31
ATOM     31  C   UNL     1      33.671 -38.144 -31.056  0.00  0.00    -0.053 C 
BRANCH  31  32
ATOM     32  C   UNL     1      34.606 -39.089 -31.821  0.00  0.00    -0.053 C 
BRANCH  32  33
ATOM     33  C   UNL     1      35.912 -39.397 -31.077  0.00  0.00    -0.053 C 
BRANCH  33  34
ATOM     34  C   UNL     1      35.923 -40.813 -30.493  0.00  0.00    -0.055 C 
BRANCH  34  35
ATOM     35  C   UNL     1      35.884 -40.868 -28.951  0.00  0.00    -0.068 C 
BRANCH  35  36
ATOM     36  C   UNL     1      34.636 -41.928 -28.422  0.00  0.00    -0.089 C 
BRANCH  36  38
ATOM     37  C   UNL     1      33.687 -41.330 -27.560  0.00  0.00    -0.101 C 
ATOM     38  N   UNL     1      34.393 -42.031 -27.458  0.00  0.00    +0.374 N 
ATOM     39  C   UNL     1      34.150 -42.134 -26.493  0.00  0.00    -0.101 C 
ATOM     40  C   UNL     1      35.099 -42.732 -27.355  0.00  0.00    -0.101 C 
ENDBRANCH  36  38
ENDBRANCH  35  36
ENDBRANCH  34  35
ENDBRANCH  33  34
ENDBRANCH  32  33
ENDBRANCH  31  32
ENDBRANCH  30  31
ENDBRANCH  29  30
ENDBRANCH  28  29
ENDBRANCH  27  28
ENDBRANCH   1  27
TORSDOF 14
ENDMDL
MODEL 12
REMARK VINA RESULT:    -6.614     16.627     21.526
REMARK INTER + INTRA:         -11.583
REMARK INTER:                 -10.519
REMARK INTRA:                  -1.063
REMARK UNBOUND:                -0.715
REMARK  Name = cpd168.pdb
REMARK  17 active torsions:
REMARK  status: ('A' for Active; 'I' for Inactive)
REMARK    1  A    between atoms: C_1  and  N_2
REMARK    2  A    between atoms: N_2  and  C_3
REMARK    3  A    between atoms: N_2  and  C_4
REMARK    4  A    between atoms: N_2  and  C_5
REMARK    5  A    between atoms: C_5  and  C_6
REMARK    6  A    between atoms: C_6  and  C_7
REMARK    7  A    between atoms: C_7  and  C_8
REMARK    8  A    between atoms: C_8  and  C_9
REMARK    9  A    between atoms: C_9  and  C_10
REMARK   10  A    between atoms: C_10  and  C_11
REMARK   11  A    between atoms: C_11  and  C_12
REMARK   12  A    between atoms: C_12  and  C_13
REMARK   13  A    between atoms: C_13  and  C_14
REMARK   14  A    between atoms: C_14  and  N_15
REMARK   15  A    between atoms: C_16  and  C_17
REMARK   16  A    between atoms: C_24  and  N_25
REMARK   17  A    between atoms: C_32  and  N_33
REMARK                            x       y       z     vdW  Elec       q    Type
REMARK                         _______ _______ _______ _____ _____    ______ ____
ROOT
ATOM      1  N   UNL     1      44.415 -19.830 -38.393  0.00  0.00    -0.339 N 
ATOM      2  C   UNL     1      45.687 -20.316 -38.262  0.00  0.00    +0.051 A 
ATOM      3  C   UNL     1      46.251 -20.509 -37.006  0.00  0.00    -0.016 A 
ATOM      4  C   UNL     1      45.544 -20.195 -35.860  0.00  0.00    +0.036 A 
ATOM      5  C   UNL     1      44.257 -19.645 -36.000  0.00  0.00    +0.020 A 
ATOM      6  C   UNL     1      43.431 -19.423 -34.885  0.00  0.00    -0.050 A 
ATOM      7  C   UNL     1      42.190 -18.806 -35.011  0.00  0.00    -0.053 A 
ATOM      8  C   UNL     1      41.778 -18.290 -36.235  0.00  0.00    -0.016 A 
ATOM      9  C   UNL     1      40.572 -17.574 -36.295  0.00  0.00    -0.052 A 
ATOM     10  C   UNL     1      40.173 -16.936 -37.466  0.00  0.00    -0.040 A 
ATOM     11  C   UNL     1      41.014 -16.941 -38.566  0.00  0.00    +0.025 A 
ATOM     12  C   UNL     1      42.179 -17.717 -38.526  0.00  0.00    -0.031 A 
ATOM     13  C   UNL     1      42.583 -18.464 -37.386  0.00  0.00    +0.008 A 
ATOM     14  C   UNL     1      43.760 -19.296 -37.295  0.00  0.00    +0.059 A 
ENDROOT
BRANCH   2  15
ATOM     15  C   UNL     1      46.450 -20.630 -39.473  0.00  0.00    -0.001 A 
ATOM     16  C   UNL     1      46.917 -21.936 -39.707  0.00  0.00    -0.053 A 
ATOM     17  C   UNL     1      47.640 -22.237 -40.862  0.00  0.00    -0.061 A 
ATOM     18  C   UNL     1      47.901 -21.242 -41.800  0.00  0.00    -0.062 A 
ATOM     19  C   UNL     1      47.436 -19.946 -41.591  0.00  0.00    -0.061 A 
ATOM     20  C   UNL     1      46.710 -19.640 -40.438  0.00  0.00    -0.053 A 
ENDBRANCH   2  15
BRANCH   4  21
ATOM     21  N   UNL     1      46.068 -20.614 -34.629  0.00  0.00    -0.357 N 
ATOM     22  H   UNL     1      47.011 -20.886 -34.563  0.00  0.00    +0.000 HD
ATOM     23  H   UNL     1      45.491 -20.637 -33.831  0.00  0.00    +0.000 HD
ENDBRANCH   4  21
BRANCH  11  24
ATOM     24  N   UNL     1      40.616 -16.369 -39.785  0.00  0.00    -0.358 N 
ATOM     25  H   UNL     1      40.145 -15.505 -39.792  0.00  0.00    +0.000 HD
ATOM     26  H   UNL     1      40.808 -16.832 -40.632  0.00  0.00    +0.000 HD
ENDBRANCH  11  24
BRANCH   1  27
ATOM     27  C   UNL     1      43.624 -20.237 -39.619  0.00  0.00    +0.024 C 
BRANCH  27  28
ATOM     28  C   UNL     1      43.173 -21.695 -39.493  0.00  0.00    -0.035 C 
BRANCH  28  29
ATOM     29  C   UNL     1      41.722 -21.836 -39.020  0.00  0.00    -0.051 C 
BRANCH  29  30
ATOM     30  C   UNL     1      40.723 -21.080 -39.902  0.00  0.00    -0.053 C 
BRANCH  30  31
ATOM     31  C   UNL     1      39.605 -20.453 -39.062  0.00  0.00    -0.053 C 
BRANCH  31  32
ATOM     32  C   UNL     1      39.584 -20.954 -37.613  0.00  0.00    -0.053 C 
BRANCH  32  33
ATOM     33  C   UNL     1      38.483 -20.314 -36.757  0.00  0.00    -0.053 C 
BRANCH  33  34
ATOM     34  C   UNL     1      38.536 -20.786 -35.301  0.00  0.00    -0.055 C 
BRANCH  34  35
ATOM     35  C   UNL     1      39.768 -21.648 -34.953  0.00  0.00    -0.068 C 
BRANCH  35  36
ATOM     36  C   UNL     1      39.733 -22.100 -33.294  0.00  0.00    -0.089 C 
BRANCH  36  38
ATOM     37  C   UNL     1      39.751 -23.504 -33.132  0.00  0.00    -0.101 C 
ATOM     38  N   UNL     1      40.376 -22.758 -32.904  0.00  0.00    +0.374 N 
ATOM     39  C   UNL     1      41.020 -23.417 -32.513  0.00  0.00    -0.101 C 
ATOM     40  C   UNL     1      41.002 -22.012 -32.675  0.00  0.00    -0.101 C 
ENDBRANCH  36  38
ENDBRANCH  35  36
ENDBRANCH  34  35
ENDBRANCH  33  34
ENDBRANCH  32  33
ENDBRANCH  31  32
ENDBRANCH  30  31
ENDBRANCH  29  30
ENDBRANCH  28  29
ENDBRANCH  27  28
ENDBRANCH   1  27
TORSDOF 14
ENDMDL
MODEL 13
REMARK VINA RESULT:    -6.503     17.335     22.257
REMARK INTER + INTRA:         -11.401
REMARK INTER:                 -10.408
REMARK INTRA:                  -0.992
REMARK UNBOUND:                -0.715
REMARK  Name = cpd168.pdb
REMARK  17 active torsions:
REMARK  status: ('A' for Active; 'I' for Inactive)
REMARK    1  A    between atoms: C_1  and  N_2
REMARK    2  A    between atoms: N_2  and  C_3
REMARK    3  A    between atoms: N_2  and  C_4
REMARK    4  A    between atoms: N_2  and  C_5
REMARK    5  A    between atoms: C_5  and  C_6
REMARK    6  A    between atoms: C_6  and  C_7
REMARK    7  A    between atoms: C_7  and  C_8
REMARK    8  A    between atoms: C_8  and  C_9
REMARK    9  A    between atoms: C_9  and  C_10
REMARK   10  A    between atoms: C_10  and  C_11
REMARK   11  A    between atoms: C_11  and  C_12
REMARK   12  A    between atoms: C_12  and  C_13
REMARK   13  A    between atoms: C_13  and  C_14
REMARK   14  A    between atoms: C_14  and  N_15
REMARK   15  A    between atoms: C_16  and  C_17
REMARK   16  A    between atoms: C_24  and  N_25
REMARK   17  A    between atoms: C_32  and  N_33
REMARK                            x       y       z     vdW  Elec       q    Type
REMARK                         _______ _______ _______ _____ _____    ______ ____
ROOT
ATOM      1  N   UNL     1      43.961 -19.865 -40.021  0.00  0.00    -0.339 N 
ATOM      2  C   UNL     1      45.044 -19.632 -40.824  0.00  0.00    +0.051 A 
ATOM      3  C   UNL     1      45.356 -18.344 -41.244  0.00  0.00    -0.016 A 
ATOM      4  C   UNL     1      44.568 -17.271 -40.874  0.00  0.00    +0.036 A 
ATOM      5  C   UNL     1      43.425 -17.522 -40.091  0.00  0.00    +0.020 A 
ATOM      6  C   UNL     1      42.651 -16.472 -39.570  0.00  0.00    -0.050 A 
ATOM      7  C   UNL     1      41.477 -16.715 -38.864  0.00  0.00    -0.053 A 
ATOM      8  C   UNL     1      40.975 -18.008 -38.750  0.00  0.00    -0.016 A 
ATOM      9  C   UNL     1      39.730 -18.197 -38.131  0.00  0.00    -0.052 A 
ATOM     10  C   UNL     1      39.129 -19.452 -38.096  0.00  0.00    -0.040 A 
ATOM     11  C   UNL     1      39.730 -20.515 -38.750  0.00  0.00    +0.025 A 
ATOM     12  C   UNL     1      41.005 -20.338 -39.301  0.00  0.00    -0.031 A 
ATOM     13  C   UNL     1      41.703 -19.100 -39.279  0.00  0.00    +0.008 A 
ATOM     14  C   UNL     1      43.025 -18.866 -39.812  0.00  0.00    +0.059 A 
ENDROOT
BRANCH   2  15
ATOM     15  C   UNL     1      45.871 -20.768 -41.239  0.00  0.00    -0.001 A 
ATOM     16  C   UNL     1      47.124 -20.996 -40.643  0.00  0.00    -0.053 A 
ATOM     17  C   UNL     1      47.912 -22.081 -41.035  0.00  0.00    -0.061 A 
ATOM     18  C   UNL     1      47.456 -22.953 -42.019  0.00  0.00    -0.062 A 
ATOM     19  C   UNL     1      46.213 -22.750 -42.612  0.00  0.00    -0.061 A 
ATOM     20  C   UNL     1      45.420 -21.668 -42.222  0.00  0.00    -0.053 A 
ENDBRANCH   2  15
BRANCH   4  21
ATOM     21  N   UNL     1      45.049 -15.981 -41.134  0.00  0.00    -0.357 N 
ATOM     22  H   UNL     1      45.880 -15.860 -41.647  0.00  0.00    +0.000 HD
ATOM     23  H   UNL     1      44.555 -15.195 -40.804  0.00  0.00    +0.000 HD
ENDBRANCH   4  21
BRANCH  11  24
ATOM     24  N   UNL     1      39.190 -21.808 -38.678  0.00  0.00    -0.358 N 
ATOM     25  H   UNL     1      38.238 -21.956 -38.882  0.00  0.00    +0.000 HD
ATOM     26  H   UNL     1      39.762 -22.568 -38.424  0.00  0.00    +0.000 HD
ENDBRANCH  11  24
BRANCH   1  27
ATOM     27  C   UNL     1      44.017 -21.055 -39.086  0.00  0.00    +0.024 C 
BRANCH  27  28
ATOM     28  C   UNL     1      44.227 -20.580 -37.644  0.00  0.00    -0.035 C 
BRANCH  28  29
ATOM     29  C   UNL     1      45.575 -19.882 -37.433  0.00  0.00    -0.051 C 
BRANCH  29  30
ATOM     30  C   UNL     1      45.437 -18.452 -36.897  0.00  0.00    -0.053 C 
BRANCH  30  31
ATOM     31  C   UNL     1      43.993 -18.156 -36.473  0.00  0.00    -0.053 C 
BRANCH  31  32
ATOM     32  C   UNL     1      43.804 -18.121 -34.952  0.00  0.00    -0.053 C 
BRANCH  32  33
ATOM     33  C   UNL     1      43.006 -19.311 -34.404  0.00  0.00    -0.053 C 
BRANCH  33  34
ATOM     34  C   UNL     1      41.763 -19.610 -35.248  0.00  0.00    -0.055 C 
BRANCH  34  35
ATOM     35  C   UNL     1      40.598 -20.249 -34.465  0.00  0.00    -0.068 C 
BRANCH  35  36
ATOM     36  C   UNL     1      40.331 -21.862 -35.001  0.00  0.00    -0.089 C 
BRANCH  36  38
ATOM     37  C   UNL     1      38.950 -22.140 -35.128  0.00  0.00    -0.101 C 
ATOM     38  N   UNL     1      39.689 -22.480 -34.546  0.00  0.00    +0.374 N 
ATOM     39  C   UNL     1      39.047 -23.097 -34.090  0.00  0.00    -0.101 C 
ATOM     40  C   UNL     1      40.428 -22.819 -33.963  0.00  0.00    -0.101 C 
ENDBRANCH  36  38
ENDBRANCH  35  36
ENDBRANCH  34  35
ENDBRANCH  33  34
ENDBRANCH  32  33
ENDBRANCH  31  32
ENDBRANCH  30  31
ENDBRANCH  29  30
ENDBRANCH  28  29
ENDBRANCH  27  28
ENDBRANCH   1  27
TORSDOF 14
ENDMDL
MODEL 14
REMARK VINA RESULT:    -6.457     18.349     22.013
REMARK INTER + INTRA:         -11.325
REMARK INTER:                 -10.424
REMARK INTRA:                  -0.901
REMARK UNBOUND:                -0.715
REMARK  Name = cpd168.pdb
REMARK  17 active torsions:
REMARK  status: ('A' for Active; 'I' for Inactive)
REMARK    1  A    between atoms: C_1  and  N_2
REMARK    2  A    between atoms: N_2  and  C_3
REMARK    3  A    between atoms: N_2  and  C_4
REMARK    4  A    between atoms: N_2  and  C_5
REMARK    5  A    between atoms: C_5  and  C_6
REMARK    6  A    between atoms: C_6  and  C_7
REMARK    7  A    between atoms: C_7  and  C_8
REMARK    8  A    between atoms: C_8  and  C_9
REMARK    9  A    between atoms: C_9  and  C_10
REMARK   10  A    between atoms: C_10  and  C_11
REMARK   11  A    between atoms: C_11  and  C_12
REMARK   12  A    between atoms: C_12  and  C_13
REMARK   13  A    between atoms: C_13  and  C_14
REMARK   14  A    between atoms: C_14  and  N_15
REMARK   15  A    between atoms: C_16  and  C_17
REMARK   16  A    between atoms: C_24  and  N_25
REMARK   17  A    between atoms: C_32  and  N_33
REMARK                            x       y       z     vdW  Elec       q    Type
REMARK                         _______ _______ _______ _____ _____    ______ ____
ROOT
ATOM      1  N   UNL     1      42.008 -19.871 -37.061  0.00  0.00    -0.339 N 
ATOM      2  C   UNL     1      41.094 -20.799 -36.642  0.00  0.00    +0.051 A 
ATOM      3  C   UNL     1      40.711 -21.847 -37.471  0.00  0.00    -0.016 A 
ATOM      4  C   UNL     1      41.231 -21.964 -38.747  0.00  0.00    +0.036 A 
ATOM      5  C   UNL     1      42.130 -20.978 -39.193  0.00  0.00    +0.020 A 
ATOM      6  C   UNL     1      42.797 -21.099 -40.423  0.00  0.00    -0.050 A 
ATOM      7  C   UNL     1      43.624 -20.089 -40.904  0.00  0.00    -0.053 A 
ATOM      8  C   UNL     1      43.728 -18.878 -40.229  0.00  0.00    -0.016 A 
ATOM      9  C   UNL     1      44.480 -17.844 -40.808  0.00  0.00    -0.052 A 
ATOM     10  C   UNL     1      44.518 -16.576 -40.234  0.00  0.00    -0.040 A 
ATOM     11  C   UNL     1      43.740 -16.308 -39.120  0.00  0.00    +0.025 A 
ATOM     12  C   UNL     1      43.051 -17.359 -38.505  0.00  0.00    -0.031 A 
ATOM     13  C   UNL     1      43.056 -18.693 -38.997  0.00  0.00    +0.008 A 
ATOM     14  C   UNL     1      42.382 -19.819 -38.394  0.00  0.00    +0.059 A 
ENDROOT
BRANCH   2  15
ATOM     15  C   UNL     1      40.522 -20.669 -35.299  0.00  0.00    -0.001 A 
ATOM     16  C   UNL     1      39.446 -19.795 -35.062  0.00  0.00    -0.053 A 
ATOM     17  C   UNL     1      38.896 -19.673 -33.785  0.00  0.00    -0.061 A 
ATOM     18  C   UNL     1      39.409 -20.424 -32.731  0.00  0.00    -0.062 A 
ATOM     19  C   UNL     1      40.467 -21.303 -32.950  0.00  0.00    -0.061 A 
ATOM     20  C   UNL     1      41.018 -21.431 -34.226  0.00  0.00    -0.053 A 
ENDBRANCH   2  15
BRANCH   4  21
ATOM     21  N   UNL     1      40.985 -23.151 -39.451  0.00  0.00    -0.357 N 
ATOM     22  H   UNL     1      41.730 -23.756 -39.670  0.00  0.00    +0.000 HD
ATOM     23  H   UNL     1      40.068 -23.379 -39.725  0.00  0.00    +0.000 HD
ENDBRANCH   4  21
BRANCH  11  24
ATOM     24  N   UNL     1      43.806 -15.063 -38.474  0.00  0.00    -0.358 N 
ATOM     25  H   UNL     1      43.836 -15.021 -37.491  0.00  0.00    +0.000 HD
ATOM     26  H   UNL     1      43.823 -14.234 -39.003  0.00  0.00    +0.000 HD
ENDBRANCH  11  24
BRANCH   1  27
ATOM     27  C   UNL     1      42.864 -19.196 -36.010  0.00  0.00    +0.024 C 
BRANCH  27  28
ATOM     28  C   UNL     1      44.170 -19.973 -35.817  0.00  0.00    -0.035 C 
BRANCH  28  29
ATOM     29  C   UNL     1      45.050 -19.400 -34.700  0.00  0.00    -0.051 C 
BRANCH  29  30
ATOM     30  C   UNL     1      46.379 -18.832 -35.211  0.00  0.00    -0.053 C 
BRANCH  30  31
ATOM     31  C   UNL     1      46.147 -17.666 -36.179  0.00  0.00    -0.053 C 
BRANCH  31  32
ATOM     32  C   UNL     1      46.790 -17.885 -37.554  0.00  0.00    -0.053 C 
BRANCH  32  33
ATOM     33  C   UNL     1      47.385 -19.287 -37.737  0.00  0.00    -0.053 C 
BRANCH  33  34
ATOM     34  C   UNL     1      46.594 -20.122 -38.750  0.00  0.00    -0.055 C 
BRANCH  34  35
ATOM     35  C   UNL     1      47.272 -21.449 -39.152  0.00  0.00    -0.068 C 
BRANCH  35  36
ATOM     36  C   UNL     1      47.223 -21.652 -40.859  0.00  0.00    -0.089 C 
BRANCH  36  38
ATOM     37  C   UNL     1      48.365 -22.421 -41.185  0.00  0.00    -0.101 C 
ATOM     38  N   UNL     1      47.378 -22.537 -41.299  0.00  0.00    +0.374 N 
ATOM     39  C   UNL     1      47.533 -23.422 -41.739  0.00  0.00    -0.101 C 
ATOM     40  C   UNL     1      46.391 -22.653 -41.413  0.00  0.00    -0.101 C 
ENDBRANCH  36  38
ENDBRANCH  35  36
ENDBRANCH  34  35
ENDBRANCH  33  34
ENDBRANCH  32  33
ENDBRANCH  31  32
ENDBRANCH  30  31
ENDBRANCH  29  30
ENDBRANCH  28  29
ENDBRANCH  27  28
ENDBRANCH   1  27
TORSDOF 14
ENDMDL
MODEL 15
REMARK VINA RESULT:    -6.394     16.669     21.019
REMARK INTER + INTRA:         -11.221
REMARK INTER:                 -11.872
REMARK INTRA:                   0.651
REMARK UNBOUND:                -0.715
REMARK  Name = cpd168.pdb
REMARK  17 active torsions:
REMARK  status: ('A' for Active; 'I' for Inactive)
REMARK    1  A    between atoms: C_1  and  N_2
REMARK    2  A    between atoms: N_2  and  C_3
REMARK    3  A    between atoms: N_2  and  C_4
REMARK    4  A    between atoms: N_2  and  C_5
REMARK    5  A    between atoms: C_5  and  C_6
REMARK    6  A    between atoms: C_6  and  C_7
REMARK    7  A    between atoms: C_7  and  C_8
REMARK    8  A    between atoms: C_8  and  C_9
REMARK    9  A    between atoms: C_9  and  C_10
REMARK   10  A    between atoms: C_10  and  C_11
REMARK   11  A    between atoms: C_11  and  C_12
REMARK   12  A    between atoms: C_12  and  C_13
REMARK   13  A    between atoms: C_13  and  C_14
REMARK   14  A    between atoms: C_14  and  N_15
REMARK   15  A    between atoms: C_16  and  C_17
REMARK   16  A    between atoms: C_24  and  N_25
REMARK   17  A    between atoms: C_32  and  N_33
REMARK                            x       y       z     vdW  Elec       q    Type
REMARK                         _______ _______ _______ _____ _____    ______ ____
ROOT
ATOM      1  N   UNL     1      42.036 -19.894 -34.362  0.00  0.00    -0.339 N 
ATOM      2  C   UNL     1      40.828 -20.019 -33.733  0.00  0.00    +0.051 A 
ATOM      3  C   UNL     1      40.224 -18.923 -33.127  0.00  0.00    -0.016 A 
ATOM      4  C   UNL     1      40.841 -17.686 -33.129  0.00  0.00    +0.036 A 
ATOM      5  C   UNL     1      42.108 -17.574 -33.731  0.00  0.00    +0.020 A 
ATOM      6  C   UNL     1      42.736 -16.328 -33.887  0.00  0.00    -0.050 A 
ATOM      7  C   UNL     1      44.022 -16.222 -34.408  0.00  0.00    -0.053 A 
ATOM      8  C   UNL     1      44.768 -17.361 -34.688  0.00  0.00    -0.016 A 
ATOM      9  C   UNL     1      46.100 -17.212 -35.101  0.00  0.00    -0.052 A 
ATOM     10  C   UNL     1      46.925 -18.319 -35.279  0.00  0.00    -0.040 A 
ATOM     11  C   UNL     1      46.449 -19.582 -34.968  0.00  0.00    +0.025 A 
ATOM     12  C   UNL     1      45.100 -19.733 -34.627  0.00  0.00    -0.031 A 
ATOM     13  C   UNL     1      44.191 -18.644 -34.525  0.00  0.00    +0.008 A 
ATOM     14  C   UNL     1      42.788 -18.742 -34.198  0.00  0.00    +0.059 A 
ENDROOT
BRANCH   2  15
ATOM     15  C   UNL     1      40.179 -21.332 -33.706  0.00  0.00    -0.001 A 
ATOM     16  C   UNL     1      39.038 -21.583 -34.489  0.00  0.00    -0.053 A 
ATOM     17  C   UNL     1      38.421 -22.835 -34.468  0.00  0.00    -0.061 A 
ATOM     18  C   UNL     1      38.938 -23.853 -33.671  0.00  0.00    -0.062 A 
ATOM     19  C   UNL     1      40.074 -23.626 -32.899  0.00  0.00    -0.061 A 
ATOM     20  C   UNL     1      40.696 -22.377 -32.918  0.00  0.00    -0.053 A 
ENDBRANCH   2  15
BRANCH   4  21
ATOM     21  N   UNL     1      40.094 -16.578 -32.705  0.00  0.00    -0.357 N 
ATOM     22  H   UNL     1      39.800 -15.904 -33.359  0.00  0.00    +0.000 HD
ATOM     23  H   UNL     1      39.864 -16.474 -31.754  0.00  0.00    +0.000 HD
ENDBRANCH   4  21
BRANCH  11  24
ATOM     24  N   UNL     1      47.227 -20.727 -35.200  0.00  0.00    -0.358 N 
ATOM     25  H   UNL     1      46.946 -21.596 -34.833  0.00  0.00    +0.000 HD
ATOM     26  H   UNL     1      48.055 -20.661 -35.730  0.00  0.00    +0.000 HD
ENDBRANCH  11  24
BRANCH   1  27
ATOM     27  C   UNL     1      42.336 -20.834 -35.511  0.00  0.00    +0.024 C 
BRANCH  27  28
ATOM     28  C   UNL     1      41.811 -20.243 -36.823  0.00  0.00    -0.035 C 
BRANCH  28  29
ATOM     29  C   UNL     1      40.958 -21.231 -37.627  0.00  0.00    -0.051 C 
BRANCH  29  30
ATOM     30  C   UNL     1      41.031 -21.000 -39.140  0.00  0.00    -0.053 C 
BRANCH  30  31
ATOM     31  C   UNL     1      42.113 -21.877 -39.783  0.00  0.00    -0.053 C 
BRANCH  31  32
ATOM     32  C   UNL     1      43.299 -21.072 -40.327  0.00  0.00    -0.053 C 
BRANCH  32  33
ATOM     33  C   UNL     1      43.315 -20.959 -41.857  0.00  0.00    -0.053 C 
BRANCH  33  34
ATOM     34  C   UNL     1      44.739 -20.955 -42.420  0.00  0.00    -0.055 C 
BRANCH  34  35
ATOM     35  C   UNL     1      45.640 -22.089 -41.887  0.00  0.00    -0.068 C 
BRANCH  35  36
ATOM     36  C   UNL     1      47.080 -21.440 -41.207  0.00  0.00    -0.089 C 
BRANCH  36  38
ATOM     37  C   UNL     1      47.295 -21.785 -39.852  0.00  0.00    -0.101 C 
ATOM     38  N   UNL     1      47.745 -22.005 -40.718  0.00  0.00    +0.374 N 
ATOM     39  C   UNL     1      48.409 -22.571 -40.229  0.00  0.00    -0.101 C 
ATOM     40  C   UNL     1      48.195 -22.226 -41.583  0.00  0.00    -0.101 C 
ENDBRANCH  36  38
ENDBRANCH  35  36
ENDBRANCH  34  35
ENDBRANCH  33  34
ENDBRANCH  32  33
ENDBRANCH  31  32
ENDBRANCH  30  31
ENDBRANCH  29  30
ENDBRANCH  28  29
ENDBRANCH  27  28
ENDBRANCH   1  27
TORSDOF 14
ENDMDL
MODEL 16
REMARK VINA RESULT:    -6.365     20.809     25.239
REMARK INTER + INTRA:         -11.173
REMARK INTER:                 -10.162
REMARK INTRA:                  -1.011
REMARK UNBOUND:                -0.715
REMARK  Name = cpd168.pdb
REMARK  17 active torsions:
REMARK  status: ('A' for Active; 'I' for Inactive)
REMARK    1  A    between atoms: C_1  and  N_2
REMARK    2  A    between atoms: N_2  and  C_3
REMARK    3  A    between atoms: N_2  and  C_4
REMARK    4  A    between atoms: N_2  and  C_5
REMARK    5  A    between atoms: C_5  and  C_6
REMARK    6  A    between atoms: C_6  and  C_7
REMARK    7  A    between atoms: C_7  and  C_8
REMARK    8  A    between atoms: C_8  and  C_9
REMARK    9  A    between atoms: C_9  and  C_10
REMARK   10  A    between atoms: C_10  and  C_11
REMARK   11  A    between atoms: C_11  and  C_12
REMARK   12  A    between atoms: C_12  and  C_13
REMARK   13  A    between atoms: C_13  and  C_14
REMARK   14  A    between atoms: C_14  and  N_15
REMARK   15  A    between atoms: C_16  and  C_17
REMARK   16  A    between atoms: C_24  and  N_25
REMARK   17  A    between atoms: C_32  and  N_33
REMARK                            x       y       z     vdW  Elec       q    Type
REMARK                         _______ _______ _______ _____ _____    ______ ____
ROOT
ATOM      1  N   UNL     1      45.335 -19.498 -38.911  0.00  0.00    -0.339 N 
ATOM      2  C   UNL     1      45.470 -19.614 -40.268  0.00  0.00    +0.051 A 
ATOM      3  C   UNL     1      44.809 -18.744 -41.127  0.00  0.00    -0.016 A 
ATOM      4  C   UNL     1      43.985 -17.752 -40.630  0.00  0.00    +0.036 A 
ATOM      5  C   UNL     1      43.808 -17.669 -39.236  0.00  0.00    +0.020 A 
ATOM      6  C   UNL     1      43.092 -16.610 -38.652  0.00  0.00    -0.050 A 
ATOM      7  C   UNL     1      42.846 -16.568 -37.283  0.00  0.00    -0.053 A 
ATOM      8  C   UNL     1      43.208 -17.633 -36.466  0.00  0.00    -0.016 A 
ATOM      9  C   UNL     1      42.839 -17.602 -35.112  0.00  0.00    -0.052 A 
ATOM     10  C   UNL     1      43.072 -18.693 -34.279  0.00  0.00    -0.040 A 
ATOM     11  C   UNL     1      43.604 -19.856 -34.811  0.00  0.00    +0.025 A 
ATOM     12  C   UNL     1      44.037 -19.856 -36.142  0.00  0.00    -0.031 A 
ATOM     13  C   UNL     1      43.910 -18.736 -37.008  0.00  0.00    +0.008 A 
ATOM     14  C   UNL     1      44.357 -18.673 -38.379  0.00  0.00    +0.059 A 
ENDROOT
BRANCH   2  15
ATOM     15  C   UNL     1      46.324 -20.678 -40.802  0.00  0.00    -0.001 A 
ATOM     16  C   UNL     1      45.954 -22.028 -40.668  0.00  0.00    -0.053 A 
ATOM     17  C   UNL     1      46.764 -23.043 -41.181  0.00  0.00    -0.061 A 
ATOM     18  C   UNL     1      47.949 -22.723 -41.838  0.00  0.00    -0.062 A 
ATOM     19  C   UNL     1      48.325 -21.391 -41.991  0.00  0.00    -0.061 A 
ATOM     20  C   UNL     1      47.517 -20.373 -41.482  0.00  0.00    -0.053 A 
ENDBRANCH   2  15
BRANCH   4  21
ATOM     21  N   UNL     1      43.526 -16.771 -41.519  0.00  0.00    -0.357 N 
ATOM     22  H   UNL     1      42.573 -16.736 -41.764  0.00  0.00    +0.000 HD
ATOM     23  H   UNL     1      44.157 -16.118 -41.900  0.00  0.00    +0.000 HD
ENDBRANCH   4  21
BRANCH  11  24
ATOM     24  N   UNL     1      43.917 -20.950 -33.990  0.00  0.00    -0.358 N 
ATOM     25  H   UNL     1      43.234 -21.633 -33.798  0.00  0.00    +0.000 HD
ATOM     26  H   UNL     1      44.819 -21.036 -33.605  0.00  0.00    +0.000 HD
ENDBRANCH  11  24
BRANCH   1  27
ATOM     27  C   UNL     1      46.488 -19.957 -38.043  0.00  0.00    +0.024 C 
BRANCH  27  28
ATOM     28  C   UNL     1      47.396 -18.770 -37.705  0.00  0.00    -0.035 C 
BRANCH  28  29
ATOM     29  C   UNL     1      47.442 -18.458 -36.204  0.00  0.00    -0.051 C 
BRANCH  29  30
ATOM     30  C   UNL     1      47.083 -17.004 -35.879  0.00  0.00    -0.053 C 
BRANCH  30  31
ATOM     31  C   UNL     1      47.384 -16.080 -37.065  0.00  0.00    -0.053 C 
BRANCH  31  32
ATOM     32  C   UNL     1      46.205 -15.172 -37.438  0.00  0.00    -0.053 C 
BRANCH  32  33
ATOM     33  C   UNL     1      46.185 -14.770 -38.918  0.00  0.00    -0.053 C 
BRANCH  33  34
ATOM     34  C   UNL     1      47.176 -15.588 -39.752  0.00  0.00    -0.055 C 
BRANCH  34  35
ATOM     35  C   UNL     1      48.309 -14.758 -40.392  0.00  0.00    -0.068 C 
BRANCH  35  36
ATOM     36  C   UNL     1      48.209 -14.830 -42.108  0.00  0.00    -0.089 C 
BRANCH  36  38
ATOM     37  C   UNL     1      48.558 -13.527 -42.532  0.00  0.00    -0.101 C 
ATOM     38  N   UNL     1      48.914 -14.446 -42.703  0.00  0.00    +0.374 N 
ATOM     39  C   UNL     1      49.620 -14.061 -43.298  0.00  0.00    -0.101 C 
ATOM     40  C   UNL     1      49.271 -15.364 -42.873  0.00  0.00    -0.101 C 
ENDBRANCH  36  38
ENDBRANCH  35  36
ENDBRANCH  34  35
ENDBRANCH  33  34
ENDBRANCH  32  33
ENDBRANCH  31  32
ENDBRANCH  30  31
ENDBRANCH  29  30
ENDBRANCH  28  29
ENDBRANCH  27  28
ENDBRANCH   1  27
TORSDOF 14
ENDMDL
MODEL 17
REMARK VINA RESULT:    -6.334     17.632     22.061
REMARK INTER + INTRA:         -11.123
REMARK INTER:                 -10.211
REMARK INTRA:                  -0.912
REMARK UNBOUND:                -0.715
REMARK  Name = cpd168.pdb
REMARK  17 active torsions:
REMARK  status: ('A' for Active; 'I' for Inactive)
REMARK    1  A    between atoms: C_1  and  N_2
REMARK    2  A    between atoms: N_2  and  C_3
REMARK    3  A    between atoms: N_2  and  C_4
REMARK    4  A    between atoms: N_2  and  C_5
REMARK    5  A    between atoms: C_5  and  C_6
REMARK    6  A    between atoms: C_6  and  C_7
REMARK    7  A    between atoms: C_7  and  C_8
REMARK    8  A    between atoms: C_8  and  C_9
REMARK    9  A    between atoms: C_9  and  C_10
REMARK   10  A    between atoms: C_10  and  C_11
REMARK   11  A    between atoms: C_11  and  C_12
REMARK   12  A    between atoms: C_12  and  C_13
REMARK   13  A    between atoms: C_13  and  C_14
REMARK   14  A    between atoms: C_14  and  N_15
REMARK   15  A    between atoms: C_16  and  C_17
REMARK   16  A    between atoms: C_24  and  N_25
REMARK   17  A    between atoms: C_32  and  N_33
REMARK                            x       y       z     vdW  Elec       q    Type
REMARK                         _______ _______ _______ _____ _____    ______ ____
ROOT
ATOM      1  N   UNL     1      42.618 -19.526 -35.746  0.00  0.00    -0.339 N 
ATOM      2  C   UNL     1      41.283 -19.362 -35.498  0.00  0.00    +0.051 A 
ATOM      3  C   UNL     1      40.668 -18.130 -35.688  0.00  0.00    -0.016 A 
ATOM      4  C   UNL     1      41.398 -17.036 -36.115  0.00  0.00    +0.036 A 
ATOM      5  C   UNL     1      42.781 -17.196 -36.319  0.00  0.00    +0.020 A 
ATOM      6  C   UNL     1      43.562 -16.169 -36.874  0.00  0.00    -0.050 A 
ATOM      7  C   UNL     1      44.942 -16.293 -37.003  0.00  0.00    -0.053 A 
ATOM      8  C   UNL     1      45.604 -17.399 -36.480  0.00  0.00    -0.016 A 
ATOM      9  C   UNL     1      47.006 -17.431 -36.527  0.00  0.00    -0.052 A 
ATOM     10  C   UNL     1      47.722 -18.455 -35.914  0.00  0.00    -0.040 A 
ATOM     11  C   UNL     1      47.046 -19.415 -35.179  0.00  0.00    +0.025 A 
ATOM     12  C   UNL     1      45.646 -19.420 -35.197  0.00  0.00    -0.031 A 
ATOM     13  C   UNL     1      44.867 -18.452 -35.887  0.00  0.00    +0.008 A 
ATOM     14  C   UNL     1      43.425 -18.420 -35.957  0.00  0.00    +0.059 A 
ENDROOT
BRANCH   2  15
ATOM     15  C   UNL     1      40.508 -20.511 -35.023  0.00  0.00    -0.001 A 
ATOM     16  C   UNL     1      40.590 -20.925 -33.681  0.00  0.00    -0.053 A 
ATOM     17  C   UNL     1      39.849 -22.017 -33.226  0.00  0.00    -0.061 A 
ATOM     18  C   UNL     1      39.013 -22.706 -34.102  0.00  0.00    -0.062 A 
ATOM     19  C   UNL     1      38.910 -22.303 -35.431  0.00  0.00    -0.061 A 
ATOM     20  C   UNL     1      39.648 -21.210 -35.890  0.00  0.00    -0.053 A 
ENDBRANCH   2  15
BRANCH   4  21
ATOM     21  N   UNL     1      40.695 -15.887 -36.502  0.00  0.00    -0.357 N 
ATOM     22  H   UNL     1      40.514 -15.719 -37.455  0.00  0.00    +0.000 HD
ATOM     23  H   UNL     1      40.382 -15.248 -35.821  0.00  0.00    +0.000 HD
ENDBRANCH   4  21
BRANCH  11  24
ATOM     24  N   UNL     1      47.726 -20.500 -34.606  0.00  0.00    -0.358 N 
ATOM     25  H   UNL     1      47.480 -21.421 -34.852  0.00  0.00    +0.000 HD
ATOM     26  H   UNL     1      48.450 -20.342 -33.957  0.00  0.00    +0.000 HD
ENDBRANCH  11  24
BRANCH   1  27
ATOM     27  C   UNL     1      43.096 -20.900 -36.167  0.00  0.00    +0.024 C 
BRANCH  27  28
ATOM     28  C   UNL     1      43.384 -20.919 -37.671  0.00  0.00    -0.035 C 
BRANCH  28  29
ATOM     29  C   UNL     1      42.176 -20.502 -38.518  0.00  0.00    -0.051 C 
BRANCH  29  30
ATOM     30  C   UNL     1      42.511 -19.428 -39.560  0.00  0.00    -0.053 C 
BRANCH  30  31
ATOM     31  C   UNL     1      43.984 -19.015 -39.476  0.00  0.00    -0.053 C 
BRANCH  31  32
ATOM     32  C   UNL     1      44.386 -17.986 -40.540  0.00  0.00    -0.053 C 
BRANCH  32  33
ATOM     33  C   UNL     1      45.839 -17.512 -40.419  0.00  0.00    -0.053 C 
BRANCH  33  34
ATOM     34  C   UNL     1      46.796 -18.662 -40.089  0.00  0.00    -0.055 C 
BRANCH  34  35
ATOM     35  C   UNL     1      47.131 -19.576 -41.286  0.00  0.00    -0.068 C 
BRANCH  35  36
ATOM     36  C   UNL     1      46.890 -21.227 -40.864  0.00  0.00    -0.089 C 
BRANCH  36  38
ATOM     37  C   UNL     1      45.990 -21.858 -41.754  0.00  0.00    -0.101 C 
ATOM     38  N   UNL     1      46.959 -21.967 -41.533  0.00  0.00    +0.374 N 
ATOM     39  C   UNL     1      47.029 -22.707 -42.202  0.00  0.00    -0.101 C 
ATOM     40  C   UNL     1      47.928 -22.076 -41.312  0.00  0.00    -0.101 C 
ENDBRANCH  36  38
ENDBRANCH  35  36
ENDBRANCH  34  35
ENDBRANCH  33  34
ENDBRANCH  32  33
ENDBRANCH  31  32
ENDBRANCH  30  31
ENDBRANCH  29  30
ENDBRANCH  28  29
ENDBRANCH  27  28
ENDBRANCH   1  27
TORSDOF 14
ENDMDL
MODEL 18
REMARK VINA RESULT:    -6.306     17.207     20.930
REMARK INTER + INTRA:         -11.076
REMARK INTER:                 -10.046
REMARK INTRA:                  -1.030
REMARK UNBOUND:                -0.715
REMARK  Name = cpd168.pdb
REMARK  17 active torsions:
REMARK  status: ('A' for Active; 'I' for Inactive)
REMARK    1  A    between atoms: C_1  and  N_2
REMARK    2  A    between atoms: N_2  and  C_3
REMARK    3  A    between atoms: N_2  and  C_4
REMARK    4  A    between atoms: N_2  and  C_5
REMARK    5  A    between atoms: C_5  and  C_6
REMARK    6  A    between atoms: C_6  and  C_7
REMARK    7  A    between atoms: C_7  and  C_8
REMARK    8  A    between atoms: C_8  and  C_9
REMARK    9  A    between atoms: C_9  and  C_10
REMARK   10  A    between atoms: C_10  and  C_11
REMARK   11  A    between atoms: C_11  and  C_12
REMARK   12  A    between atoms: C_12  and  C_13
REMARK   13  A    between atoms: C_13  and  C_14
REMARK   14  A    between atoms: C_14  and  N_15
REMARK   15  A    between atoms: C_16  and  C_17
REMARK   16  A    between atoms: C_24  and  N_25
REMARK   17  A    between atoms: C_32  and  N_33
REMARK                            x       y       z     vdW  Elec       q    Type
REMARK                         _______ _______ _______ _____ _____    ______ ____
ROOT
ATOM      1  N   UNL     1      40.863 -19.268 -33.882  0.00  0.00    -0.339 N 
ATOM      2  C   UNL     1      42.076 -19.897 -33.816  0.00  0.00    +0.051 A 
ATOM      3  C   UNL     1      42.164 -21.238 -33.461  0.00  0.00    -0.016 A 
ATOM      4  C   UNL     1      41.029 -21.962 -33.146  0.00  0.00    +0.036 A 
ATOM      5  C   UNL     1      39.789 -21.296 -33.163  0.00  0.00    +0.020 A 
ATOM      6  C   UNL     1      38.582 -21.993 -32.983  0.00  0.00    -0.050 A 
ATOM      7  C   UNL     1      37.362 -21.329 -32.919  0.00  0.00    -0.053 A 
ATOM      8  C   UNL     1      37.312 -19.939 -32.921  0.00  0.00    -0.016 A 
ATOM      9  C   UNL     1      36.072 -19.307 -32.738  0.00  0.00    -0.052 A 
ATOM     10  C   UNL     1      35.983 -17.923 -32.613  0.00  0.00    -0.040 A 
ATOM     11  C   UNL     1      37.142 -17.164 -32.590  0.00  0.00    +0.025 A 
ATOM     12  C   UNL     1      38.367 -17.790 -32.847  0.00  0.00    -0.031 A 
ATOM     13  C   UNL     1      38.501 -19.187 -33.075  0.00  0.00    +0.008 A 
ATOM     14  C   UNL     1      39.734 -19.882 -33.364  0.00  0.00    +0.059 A 
ENDROOT
BRANCH   2  15
ATOM     15  C   UNL     1      43.285 -19.131 -34.126  0.00  0.00    -0.001 A 
ATOM     16  C   UNL     1      43.968 -19.330 -35.339  0.00  0.00    -0.053 A 
ATOM     17  C   UNL     1      45.118 -18.598 -35.638  0.00  0.00    -0.061 A 
ATOM     18  C   UNL     1      45.598 -17.654 -34.733  0.00  0.00    -0.062 A 
ATOM     19  C   UNL     1      44.928 -17.435 -33.532  0.00  0.00    -0.061 A 
ATOM     20  C   UNL     1      43.776 -18.164 -33.230  0.00  0.00    -0.053 A 
ENDBRANCH   2  15
BRANCH   4  21
ATOM     21  N   UNL     1      41.150 -23.351 -33.015  0.00  0.00    -0.357 N 
ATOM     22  H   UNL     1      41.066 -23.930 -33.807  0.00  0.00    +0.000 HD
ATOM     23  H   UNL     1      41.318 -23.750 -32.130  0.00  0.00    +0.000 HD
ENDBRANCH   4  21
BRANCH  11  24
ATOM     24  N   UNL     1      37.088 -15.763 -32.536  0.00  0.00    -0.358 N 
ATOM     25  H   UNL     1      36.938 -15.244 -33.359  0.00  0.00    +0.000 HD
ATOM     26  H   UNL     1      37.200 -15.298 -31.676  0.00  0.00    +0.000 HD
ENDBRANCH  11  24
BRANCH   1  27
ATOM     27  C   UNL     1      40.717 -18.112 -34.849  0.00  0.00    +0.024 C 
BRANCH  27  28
ATOM     28  C   UNL     1      40.465 -18.639 -36.264  0.00  0.00    -0.035 C 
BRANCH  28  29
ATOM     29  C   UNL     1      38.977 -18.685 -36.632  0.00  0.00    -0.051 C 
BRANCH  29  30
ATOM     30  C   UNL     1      38.398 -20.105 -36.629  0.00  0.00    -0.053 C 
BRANCH  30  31
ATOM     31  C   UNL     1      39.230 -21.045 -37.510  0.00  0.00    -0.053 C 
BRANCH  31  32
ATOM     32  C   UNL     1      39.894 -22.181 -36.723  0.00  0.00    -0.053 C 
BRANCH  32  33
ATOM     33  C   UNL     1      41.411 -22.268 -36.934  0.00  0.00    -0.053 C 
BRANCH  33  34
ATOM     34  C   UNL     1      41.812 -21.952 -38.378  0.00  0.00    -0.055 C 
BRANCH  34  35
ATOM     35  C   UNL     1      42.924 -20.890 -38.514  0.00  0.00    -0.068 C 
BRANCH  35  36
ATOM     36  C   UNL     1      43.964 -21.279 -39.828  0.00  0.00    -0.089 C 
BRANCH  36  38
ATOM     37  C   UNL     1      45.327 -21.275 -39.450  0.00  0.00    -0.101 C 
ATOM     38  N   UNL     1      44.762 -20.723 -40.063  0.00  0.00    +0.374 N 
ATOM     39  C   UNL     1      45.559 -20.167 -40.298  0.00  0.00    -0.101 C 
ATOM     40  C   UNL     1      44.197 -20.171 -40.676  0.00  0.00    -0.101 C 
ENDBRANCH  36  38
ENDBRANCH  35  36
ENDBRANCH  34  35
ENDBRANCH  33  34
ENDBRANCH  32  33
ENDBRANCH  31  32
ENDBRANCH  30  31
ENDBRANCH  29  30
ENDBRANCH  28  29
ENDBRANCH  27  28
ENDBRANCH   1  27
TORSDOF 14
ENDMDL
MODEL 19
REMARK VINA RESULT:    -6.077     18.825     23.429
REMARK INTER + INTRA:         -10.700
REMARK INTER:                  -9.934
REMARK INTRA:                  -0.766
REMARK UNBOUND:                -0.715
REMARK  Name = cpd168.pdb
REMARK  17 active torsions:
REMARK  status: ('A' for Active; 'I' for Inactive)
REMARK    1  A    between atoms: C_1  and  N_2
REMARK    2  A    between atoms: N_2  and  C_3
REMARK    3  A    between atoms: N_2  and  C_4
REMARK    4  A    between atoms: N_2  and  C_5
REMARK    5  A    between atoms: C_5  and  C_6
REMARK    6  A    between atoms: C_6  and  C_7
REMARK    7  A    between atoms: C_7  and  C_8
REMARK    8  A    between atoms: C_8  and  C_9
REMARK    9  A    between atoms: C_9  and  C_10
REMARK   10  A    between atoms: C_10  and  C_11
REMARK   11  A    between atoms: C_11  and  C_12
REMARK   12  A    between atoms: C_12  and  C_13
REMARK   13  A    between atoms: C_13  and  C_14
REMARK   14  A    between atoms: C_14  and  N_15
REMARK   15  A    between atoms: C_16  and  C_17
REMARK   16  A    between atoms: C_24  and  N_25
REMARK   17  A    between atoms: C_32  and  N_33
REMARK                            x       y       z     vdW  Elec       q    Type
REMARK                         _______ _______ _______ _____ _____    ______ ____
ROOT
ATOM      1  N   UNL     1      43.757 -18.615 -39.441  0.00  0.00    -0.339 N 
ATOM      2  C   UNL     1      43.840 -19.954 -39.177  0.00  0.00    +0.051 A 
ATOM      3  C   UNL     1      45.045 -20.634 -39.314  0.00  0.00    -0.016 A 
ATOM      4  C   UNL     1      46.183 -19.974 -39.738  0.00  0.00    +0.036 A 
ATOM      5  C   UNL     1      46.081 -18.608 -40.059  0.00  0.00    +0.020 A 
ATOM      6  C   UNL     1      47.217 -17.843 -40.372  0.00  0.00    -0.050 A 
ATOM      7  C   UNL     1      47.112 -16.513 -40.767  0.00  0.00    -0.053 A 
ATOM      8  C   UNL     1      45.865 -15.933 -40.973  0.00  0.00    -0.016 A 
ATOM      9  C   UNL     1      45.804 -14.628 -41.484  0.00  0.00    -0.052 A 
ATOM     10  C   UNL     1      44.585 -14.045 -41.820  0.00  0.00    -0.040 A 
ATOM     11  C   UNL     1      43.422 -14.791 -41.723  0.00  0.00    +0.025 A 
ATOM     12  C   UNL     1      43.480 -16.064 -41.145  0.00  0.00    -0.031 A 
ATOM     13  C   UNL     1      44.687 -16.668 -40.698  0.00  0.00    +0.008 A 
ATOM     14  C   UNL     1      44.803 -17.966 -40.077  0.00  0.00    +0.059 A 
ENDROOT
BRANCH   2  15
ATOM     15  C   UNL     1      42.632 -20.665 -38.749  0.00  0.00    -0.001 A 
ATOM     16  C   UNL     1      42.484 -21.084 -37.415  0.00  0.00    -0.053 A 
ATOM     17  C   UNL     1      41.332 -21.758 -37.004  0.00  0.00    -0.061 A 
ATOM     18  C   UNL     1      40.312 -22.015 -37.917  0.00  0.00    -0.062 A 
ATOM     19  C   UNL     1      40.437 -21.596 -39.239  0.00  0.00    -0.061 A 
ATOM     20  C   UNL     1      41.586 -20.920 -39.654  0.00  0.00    -0.053 A 
ENDBRANCH   2  15
BRANCH   4  21
ATOM     21  N   UNL     1      47.408 -20.649 -39.644  0.00  0.00    -0.357 N 
ATOM     22  H   UNL     1      48.137 -20.435 -40.270  0.00  0.00    +0.000 HD
ATOM     23  H   UNL     1      47.539 -21.337 -38.951  0.00  0.00    +0.000 HD
ENDBRANCH   4  21
BRANCH  11  24
ATOM     24  N   UNL     1      42.169 -14.216 -41.986  0.00  0.00    -0.358 N 
ATOM     25  H   UNL     1      41.346 -14.703 -41.753  0.00  0.00    +0.000 HD
ATOM     26  H   UNL     1      42.113 -13.326 -42.403  0.00  0.00    +0.000 HD
ENDBRANCH  11  24
BRANCH   1  27
ATOM     27  C   UNL     1      42.712 -17.810 -38.697  0.00  0.00    +0.024 C 
BRANCH  27  28
ATOM     28  C   UNL     1      43.194 -17.514 -37.273  0.00  0.00    -0.035 C 
BRANCH  28  29
ATOM     29  C   UNL     1      43.885 -16.152 -37.143  0.00  0.00    -0.051 C 
BRANCH  29  30
ATOM     30  C   UNL     1      45.393 -16.262 -36.891  0.00  0.00    -0.053 C 
BRANCH  30  31
ATOM     31  C   UNL     1      45.782 -17.683 -36.467  0.00  0.00    -0.053 C 
BRANCH  31  32
ATOM     32  C   UNL     1      46.388 -17.749 -35.060  0.00  0.00    -0.053 C 
BRANCH  32  33
ATOM     33  C   UNL     1      45.343 -17.696 -33.938  0.00  0.00    -0.053 C 
BRANCH  33  34
ATOM     34  C   UNL     1      44.543 -18.998 -33.833  0.00  0.00    -0.055 C 
BRANCH  34  35
ATOM     35  C   UNL     1      43.142 -18.838 -33.205  0.00  0.00    -0.068 C 
BRANCH  35  36
ATOM     36  C   UNL     1      42.112 -20.122 -33.704  0.00  0.00    -0.089 C 
BRANCH  36  38
ATOM     37  C   UNL     1      40.851 -19.566 -34.021  0.00  0.00    -0.101 C 
ATOM     38  N   UNL     1      41.182 -20.232 -33.352  0.00  0.00    +0.374 N 
ATOM     39  C   UNL     1      40.252 -20.341 -33.001  0.00  0.00    -0.101 C 
ATOM     40  C   UNL     1      41.513 -20.898 -32.684  0.00  0.00    -0.101 C 
ENDBRANCH  36  38
ENDBRANCH  35  36
ENDBRANCH  34  35
ENDBRANCH  33  34
ENDBRANCH  32  33
ENDBRANCH  31  32
ENDBRANCH  30  31
ENDBRANCH  29  30
ENDBRANCH  28  29
ENDBRANCH  27  28
ENDBRANCH   1  27
TORSDOF 14
ENDMDL
MODEL 20
REMARK VINA RESULT:    -6.057     18.465     23.112
REMARK INTER + INTRA:         -10.667
REMARK INTER:                  -9.902
REMARK INTRA:                  -0.765
REMARK UNBOUND:                -0.715
REMARK  Name = cpd168.pdb
REMARK  17 active torsions:
REMARK  status: ('A' for Active; 'I' for Inactive)
REMARK    1  A    between atoms: C_1  and  N_2
REMARK    2  A    between atoms: N_2  and  C_3
REMARK    3  A    between atoms: N_2  and  C_4
REMARK    4  A    between atoms: N_2  and  C_5
REMARK    5  A    between atoms: C_5  and  C_6
REMARK    6  A    between atoms: C_6  and  C_7
REMARK    7  A    between atoms: C_7  and  C_8
REMARK    8  A    between atoms: C_8  and  C_9
REMARK    9  A    between atoms: C_9  and  C_10
REMARK   10  A    between atoms: C_10  and  C_11
REMARK   11  A    between atoms: C_11  and  C_12
REMARK   12  A    between atoms: C_12  and  C_13
REMARK   13  A    between atoms: C_13  and  C_14
REMARK   14  A    between atoms: C_14  and  N_15
REMARK   15  A    between atoms: C_16  and  C_17
REMARK   16  A    between atoms: C_24  and  N_25
REMARK   17  A    between atoms: C_32  and  N_33
REMARK                            x       y       z     vdW  Elec       q    Type
REMARK                         _______ _______ _______ _____ _____    ______ ____
ROOT
ATOM      1  N   UNL     1      45.397 -18.294 -39.124  0.00  0.00    -0.339 N 
ATOM      2  C   UNL     1      46.042 -18.426 -40.323  0.00  0.00    +0.051 A 
ATOM      3  C   UNL     1      46.950 -17.465 -40.754  0.00  0.00    -0.016 A 
ATOM      4  C   UNL     1      47.206 -16.342 -39.988  0.00  0.00    +0.036 A 
ATOM      5  C   UNL     1      46.500 -16.184 -38.781  0.00  0.00    +0.020 A 
ATOM      6  C   UNL     1      46.800 -15.140 -37.890  0.00  0.00    -0.050 A 
ATOM      7  C   UNL     1      46.052 -14.933 -36.735  0.00  0.00    -0.053 A 
ATOM      8  C   UNL     1      44.912 -15.689 -36.485  0.00  0.00    -0.016 A 
ATOM      9  C   UNL     1      44.122 -15.371 -35.370  0.00  0.00    -0.052 A 
ATOM     10  C   UNL     1      42.910 -16.018 -35.141  0.00  0.00    -0.040 A 
ATOM     11  C   UNL     1      42.439 -16.932 -36.069  0.00  0.00    +0.025 A 
ATOM     12  C   UNL     1      43.264 -17.299 -37.138  0.00  0.00    -0.031 A 
ATOM     13  C   UNL     1      44.550 -16.738 -37.364  0.00  0.00    +0.008 A 
ATOM     14  C   UNL     1      45.451 -17.092 -38.436  0.00  0.00    +0.059 A 
ENDROOT
BRANCH   2  15
ATOM     15  C   UNL     1      45.759 -19.601 -41.151  0.00  0.00    -0.001 A 
ATOM     16  C   UNL     1      44.586 -19.666 -41.923  0.00  0.00    -0.053 A 
ATOM     17  C   UNL     1      44.316 -20.784 -42.716  0.00  0.00    -0.061 A 
ATOM     18  C   UNL     1      45.215 -21.846 -42.752  0.00  0.00    -0.062 A 
ATOM     19  C   UNL     1      46.388 -21.793 -42.002  0.00  0.00    -0.061 A 
ATOM     20  C   UNL     1      46.663 -20.677 -41.210  0.00  0.00    -0.053 A 
ENDBRANCH   2  15
BRANCH   4  21
ATOM     21  N   UNL     1      48.283 -15.526 -40.358  0.00  0.00    -0.357 N 
ATOM     22  H   UNL     1      48.645 -15.573 -41.272  0.00  0.00    +0.000 HD
ATOM     23  H   UNL     1      48.678 -14.906 -39.703  0.00  0.00    +0.000 HD
ENDBRANCH   4  21
BRANCH  11  24
ATOM     24  N   UNL     1      41.257 -17.654 -35.838  0.00  0.00    -0.358 N 
ATOM     25  H   UNL     1      41.020 -17.930 -34.923  0.00  0.00    +0.000 HD
ATOM     26  H   UNL     1      40.666 -17.885 -36.590  0.00  0.00    +0.000 HD
ENDBRANCH  11  24
BRANCH   1  27
ATOM     27  C   UNL     1      44.976 -19.557 -38.404  0.00  0.00    +0.024 C 
BRANCH  27  28
ATOM     28  C   UNL     1      46.111 -20.051 -37.502  0.00  0.00    -0.035 C 
BRANCH  28  29
ATOM     29  C   UNL     1      45.730 -20.078 -36.017  0.00  0.00    -0.051 C 
BRANCH  29  30
ATOM     30  C   UNL     1      46.313 -18.904 -35.223  0.00  0.00    -0.053 C 
BRANCH  30  31
ATOM     31  C   UNL     1      45.437 -18.565 -34.011  0.00  0.00    -0.053 C 
BRANCH  31  32
ATOM     32  C   UNL     1      44.147 -19.393 -33.947  0.00  0.00    -0.053 C 
BRANCH  32  33
ATOM     33  C   UNL     1      43.123 -18.857 -32.938  0.00  0.00    -0.053 C 
BRANCH  33  34
ATOM     34  C   UNL     1      41.929 -19.801 -32.771  0.00  0.00    -0.055 C 
BRANCH  34  35
ATOM     35  C   UNL     1      41.787 -20.855 -33.890  0.00  0.00    -0.068 C 
BRANCH  35  36
ATOM     36  C   UNL     1      40.157 -21.396 -33.998  0.00  0.00    -0.089 C 
BRANCH  36  38
ATOM     37  C   UNL     1      39.587 -21.301 -35.289  0.00  0.00    -0.101 C 
ATOM     38  N   UNL     1      39.855 -22.054 -34.688  0.00  0.00    +0.374 N 
ATOM     39  C   UNL     1      39.553 -22.712 -35.377  0.00  0.00    -0.101 C 
ATOM     40  C   UNL     1      40.124 -22.807 -34.087  0.00  0.00    -0.101 C 
ENDBRANCH  36  38
ENDBRANCH  35  36
ENDBRANCH  34  35
ENDBRANCH  33  34
ENDBRANCH  32  33
ENDBRANCH  31  32
ENDBRANCH  30  31
ENDBRANCH  29  30
ENDBRANCH  28  29
ENDBRANCH  27  28
ENDBRANCH   1  27
TORSDOF 14
ENDMDL
