@<TRIPOS>MOLECULE
*****
 13 13 0 0 0
SMALL
GASTEIGER

@<TRIPOS>ATOM
      1 C           1.0000   -1.0000    0.0000 C.3     1  UNL1        0.3353
      2 N           1.0000   -0.0000    0.0000 N.pl3   1  UNL1       -0.3098
      3 C           2.0000    0.0000    0.0000 C.3     1  UNL1        0.3353
      4 C           1.0000    1.0000    0.0000 C.3     1  UNL1        0.3353
      5 C           0.0000    0.0000    0.0000 C.ar    1  UNL1        0.1721
      6 C          -0.5000   -0.8660    0.0000 C.ar    1  UNL1        0.0634
      7 C          -1.5000   -0.8660    0.0000 C.ar    1  UNL1        0.0122
      8 C          -2.0000   -0.0000    0.0000 C.ar    1  UNL1        0.0757
      9 C          -1.5000    0.8660    0.0000 C.ar    1  UNL1        0.2958
     10 N          -2.0000    1.7321    0.0000 N.pl3   1  UNL1        0.0811
     11 O          -1.5000    2.5981    0.0000 O.2     1  UNL1        0.0415
     12 O          -3.0000    1.7321    0.0000 O.co2   1  UNL1       -0.5760
     13 C          -0.5000    0.8660    0.0000 C.ar    1  UNL1        0.1380
@<TRIPOS>UNITY_ATOM_ATTR
2 1
charge 1
10 1
charge 1
12 1
charge -1
@<TRIPOS>BOND
     1     1     2    1
     2     2     3    1
     3     2     4    1
     4     2     5    1
     5     5     6   ar
     6     6     7   ar
     7     7     8   ar
     8     8     9   ar
     9     9    10    1
    10    10    11    2
    11    10    12    1
    12     9    13   ar
    13     5    13   ar
