MODEL 1
REMARK VINA RESULT:    -6.318      0.000      0.000
REMARK INTER + INTRA:          -7.213
REMARK INTER:                  -7.057
REMARK INTRA:                  -0.156
REMARK UNBOUND:                -0.156
REMARK  Name = cpd217.pdb
REMARK  5 active torsions:
REMARK  status: ('A' for Active; 'I' for Inactive)
REMARK    1  A    between atoms: C_1  and  N_2
REMARK    2  A    between atoms: N_2  and  C_3
REMARK    3  A    between atoms: N_2  and  C_4
REMARK    4  A    between atoms: N_2  and  C_5
REMARK    5  A    between atoms: C_9  and  N_10
REMARK                            x       y       z     vdW  Elec       q    Type
REMARK                         _______ _______ _______ _____ _____    ______ ____
ROOT
ATOM      1  C   UNL     1      48.870 -38.630 -29.870  0.00  0.00    +0.017 A 
ATOM      2  C   UNL     1      49.118 -39.788 -30.805  0.00  0.00    -0.042 A 
ATOM      3  C   UNL     1      48.198 -40.821 -31.044  0.00  0.00    -0.058 A 
ATOM      4  C   UNL     1      46.961 -40.835 -30.397  0.00  0.00    -0.031 A 
ATOM      5  C   UNL     1      46.613 -39.813 -29.507  0.00  0.00    +0.128 A 
ATOM      6  C   UNL     1      47.498 -38.745 -29.246  0.00  0.00    -0.012 A 
ENDROOT
BRANCH   1   8
ATOM      7  C   UNL     1      49.782 -38.356 -28.825  0.00  0.00    -0.015 C 
ATOM      8  N   UNL     1      49.524 -37.899 -29.676  0.00  0.00    -0.390 NA
ATOM      9  C   UNL     1      50.178 -37.168 -29.482  0.00  0.00    -0.015 C 
ATOM     10  C   UNL     1      49.265 -37.442 -30.527  0.00  0.00    -0.015 C 
ENDBRANCH   1   8
BRANCH   5  11
ATOM     11  N   UNL     1      45.319 -39.862 -28.812  0.00  0.00    +0.056 N 
ATOM     12  O   UNL     1      44.423 -40.529 -29.346  0.00  0.00    -0.126 OA
ATOM     13  O   UNL     1      45.213 -39.238 -27.752  0.00  0.00    -0.126 OA
ENDBRANCH   5  11
TORSDOF 2
ENDMDL
MODEL 2
REMARK VINA RESULT:    -6.219      6.952      8.235
REMARK INTER + INTRA:          -7.102
REMARK INTER:                  -7.025
REMARK INTRA:                  -0.078
REMARK UNBOUND:                -0.156
REMARK  Name = cpd217.pdb
REMARK  5 active torsions:
REMARK  status: ('A' for Active; 'I' for Inactive)
REMARK    1  A    between atoms: C_1  and  N_2
REMARK    2  A    between atoms: N_2  and  C_3
REMARK    3  A    between atoms: N_2  and  C_4
REMARK    4  A    between atoms: N_2  and  C_5
REMARK    5  A    between atoms: C_9  and  N_10
REMARK                            x       y       z     vdW  Elec       q    Type
REMARK                         _______ _______ _______ _____ _____    ______ ____
ROOT
ATOM      1  C   UNL     1      40.090 -35.942 -31.608  0.00  0.00    +0.017 A 
ATOM      2  C   UNL     1      41.179 -36.324 -32.581  0.00  0.00    -0.042 A 
ATOM      3  C   UNL     1      42.113 -37.347 -32.359  0.00  0.00    -0.058 A 
ATOM      4  C   UNL     1      42.088 -38.088 -31.177  0.00  0.00    -0.031 A 
ATOM      5  C   UNL     1      41.123 -37.831 -30.197  0.00  0.00    +0.128 A 
ATOM      6  C   UNL     1      40.153 -36.823 -30.381  0.00  0.00    -0.012 A 
ENDROOT
BRANCH   1   8
ATOM      7  C   UNL     1      40.179 -34.540 -31.766  0.00  0.00    -0.015 C 
ATOM      8  N   UNL     1      39.431 -35.203 -31.746  0.00  0.00    -0.390 NA
ATOM      9  C   UNL     1      38.772 -34.464 -31.883  0.00  0.00    -0.015 C 
ATOM     10  C   UNL     1      38.683 -35.866 -31.725  0.00  0.00    -0.015 C 
ENDBRANCH   1   8
BRANCH   5  11
ATOM     11  N   UNL     1      41.131 -38.601 -28.945  0.00  0.00    +0.056 N 
ATOM     12  O   UNL     1      40.035 -38.805 -28.409  0.00  0.00    -0.126 OA
ATOM     13  O   UNL     1      42.223 -38.987 -28.516  0.00  0.00    -0.126 OA
ENDBRANCH   5  11
TORSDOF 2
ENDMDL
MODEL 3
REMARK VINA RESULT:    -6.141      2.328      2.988
REMARK INTER + INTRA:          -7.015
REMARK INTER:                  -6.889
REMARK INTRA:                  -0.126
REMARK UNBOUND:                -0.156
REMARK  Name = cpd217.pdb
REMARK  5 active torsions:
REMARK  status: ('A' for Active; 'I' for Inactive)
REMARK    1  A    between atoms: C_1  and  N_2
REMARK    2  A    between atoms: N_2  and  C_3
REMARK    3  A    between atoms: N_2  and  C_4
REMARK    4  A    between atoms: N_2  and  C_5
REMARK    5  A    between atoms: C_9  and  N_10
REMARK                            x       y       z     vdW  Elec       q    Type
REMARK                         _______ _______ _______ _____ _____    ______ ____
ROOT
ATOM      1  C   UNL     1      48.711 -38.919 -29.796  0.00  0.00    +0.017 A 
ATOM      2  C   UNL     1      47.404 -38.809 -29.050  0.00  0.00    -0.042 A 
ATOM      3  C   UNL     1      46.318 -39.680 -29.228  0.00  0.00    -0.058 A 
ATOM      4  C   UNL     1      46.391 -40.728 -30.146  0.00  0.00    -0.031 A 
ATOM      5  C   UNL     1      47.552 -40.936 -30.898  0.00  0.00    +0.128 A 
ATOM      6  C   UNL     1      48.676 -40.096 -30.743  0.00  0.00    -0.012 A 
ENDROOT
BRANCH   1   8
ATOM      7  C   UNL     1      49.288 -37.902 -30.592  0.00  0.00    -0.015 C 
ATOM      8  N   UNL     1      49.485 -38.293 -29.693  0.00  0.00    -0.390 NA
ATOM      9  C   UNL     1      50.259 -37.668 -29.590  0.00  0.00    -0.015 C 
ATOM     10  C   UNL     1      49.682 -38.685 -28.794  0.00  0.00    -0.015 C 
ENDBRANCH   1   8
BRANCH   5  11
ATOM     11  N   UNL     1      47.599 -42.026 -31.883  0.00  0.00    +0.056 N 
ATOM     12  O   UNL     1      48.676 -42.206 -32.465  0.00  0.00    -0.126 OA
ATOM     13  O   UNL     1      46.569 -42.682 -32.062  0.00  0.00    -0.126 OA
ENDBRANCH   5  11
TORSDOF 2
ENDMDL
MODEL 4
REMARK VINA RESULT:    -5.840      7.009      8.101
REMARK INTER + INTRA:          -6.679
REMARK INTER:                  -6.541
REMARK INTRA:                  -0.138
REMARK UNBOUND:                -0.156
REMARK  Name = cpd217.pdb
REMARK  5 active torsions:
REMARK  status: ('A' for Active; 'I' for Inactive)
REMARK    1  A    between atoms: C_1  and  N_2
REMARK    2  A    between atoms: N_2  and  C_3
REMARK    3  A    between atoms: N_2  and  C_4
REMARK    4  A    between atoms: N_2  and  C_5
REMARK    5  A    between atoms: C_9  and  N_10
REMARK                            x       y       z     vdW  Elec       q    Type
REMARK                         _______ _______ _______ _____ _____    ______ ____
ROOT
ATOM      1  C   UNL     1      41.489 -36.789 -31.350  0.00  0.00    +0.017 A 
ATOM      2  C   UNL     1      40.853 -36.127 -32.548  0.00  0.00    -0.042 A 
ATOM      3  C   UNL     1      39.484 -35.833 -32.653  0.00  0.00    -0.058 A 
ATOM      4  C   UNL     1      38.606 -36.156 -31.618  0.00  0.00    -0.031 A 
ATOM      5  C   UNL     1      39.076 -36.770 -30.452  0.00  0.00    +0.128 A 
ATOM      6  C   UNL     1      40.445 -37.073 -30.293  0.00  0.00    -0.012 A 
ENDROOT
BRANCH   1   8
ATOM      7  C   UNL     1      42.677 -36.059 -31.114  0.00  0.00    -0.015 C 
ATOM      8  N   UNL     1      42.458 -37.022 -31.270  0.00  0.00    -0.390 NA
ATOM      9  C   UNL     1      43.427 -37.255 -31.191  0.00  0.00    -0.015 C 
ATOM     10  C   UNL     1      42.239 -37.985 -31.426  0.00  0.00    -0.015 C 
ENDBRANCH   1   8
BRANCH   5  11
ATOM     11  N   UNL     1      38.131 -37.132 -29.387  0.00  0.00    +0.056 N 
ATOM     12  O   UNL     1      37.107 -36.443 -29.292  0.00  0.00    -0.126 OA
ATOM     13  O   UNL     1      38.420 -38.090 -28.663  0.00  0.00    -0.126 OA
ENDBRANCH   5  11
TORSDOF 2
ENDMDL
MODEL 5
REMARK VINA RESULT:    -5.812      7.400      9.016
REMARK INTER + INTRA:          -6.648
REMARK INTER:                  -6.858
REMARK INTRA:                   0.210
REMARK UNBOUND:                -0.156
REMARK  Name = cpd217.pdb
REMARK  5 active torsions:
REMARK  status: ('A' for Active; 'I' for Inactive)
REMARK    1  A    between atoms: C_1  and  N_2
REMARK    2  A    between atoms: N_2  and  C_3
REMARK    3  A    between atoms: N_2  and  C_4
REMARK    4  A    between atoms: N_2  and  C_5
REMARK    5  A    between atoms: C_9  and  N_10
REMARK                            x       y       z     vdW  Elec       q    Type
REMARK                         _______ _______ _______ _____ _____    ______ ____
ROOT
ATOM      1  C   UNL     1      39.018 -36.626 -30.775  0.00  0.00    +0.017 A 
ATOM      2  C   UNL     1      38.979 -35.890 -32.092  0.00  0.00    -0.042 A 
ATOM      3  C   UNL     1      40.053 -35.827 -32.993  0.00  0.00    -0.058 A 
ATOM      4  C   UNL     1      41.262 -36.460 -32.704  0.00  0.00    -0.031 A 
ATOM      5  C   UNL     1      41.422 -37.177 -31.513  0.00  0.00    +0.128 A 
ATOM      6  C   UNL     1      40.366 -37.282 -30.582  0.00  0.00    -0.012 A 
ENDROOT
BRANCH   1   8
ATOM      7  C   UNL     1      38.753 -37.369 -29.601  0.00  0.00    -0.015 C 
ATOM      8  N   UNL     1      38.268 -36.662 -30.115  0.00  0.00    -0.390 NA
ATOM      9  C   UNL     1      37.517 -36.698 -29.455  0.00  0.00    -0.015 C 
ATOM     10  C   UNL     1      37.782 -35.955 -30.629  0.00  0.00    -0.015 C 
ENDBRANCH   1   8
BRANCH   5  11
ATOM     11  N   UNL     1      42.713 -37.811 -31.211  0.00  0.00    +0.056 N 
ATOM     12  O   UNL     1      42.678 -38.969 -30.776  0.00  0.00    -0.126 OA
ATOM     13  O   UNL     1      43.737 -37.150 -31.408  0.00  0.00    -0.126 OA
ENDBRANCH   5  11
TORSDOF 2
ENDMDL
MODEL 6
REMARK VINA RESULT:    -5.796      7.332      8.503
REMARK INTER + INTRA:          -6.629
REMARK INTER:                  -6.543
REMARK INTRA:                  -0.087
REMARK UNBOUND:                -0.156
REMARK  Name = cpd217.pdb
REMARK  5 active torsions:
REMARK  status: ('A' for Active; 'I' for Inactive)
REMARK    1  A    between atoms: C_1  and  N_2
REMARK    2  A    between atoms: N_2  and  C_3
REMARK    3  A    between atoms: N_2  and  C_4
REMARK    4  A    between atoms: N_2  and  C_5
REMARK    5  A    between atoms: C_9  and  N_10
REMARK                            x       y       z     vdW  Elec       q    Type
REMARK                         _______ _______ _______ _____ _____    ______ ____
ROOT
ATOM      1  C   UNL     1      41.335 -37.025 -30.830  0.00  0.00    +0.017 A 
ATOM      2  C   UNL     1      40.754 -37.851 -29.708  0.00  0.00    -0.042 A 
ATOM      3  C   UNL     1      39.412 -37.795 -29.300  0.00  0.00    -0.058 A 
ATOM      4  C   UNL     1      38.513 -36.933 -29.930  0.00  0.00    -0.031 A 
ATOM      5  C   UNL     1      38.932 -36.118 -30.987  0.00  0.00    +0.128 A 
ATOM      6  C   UNL     1      40.267 -36.149 -31.443  0.00  0.00    -0.012 A 
ENDROOT
BRANCH   1   8
ATOM      7  C   UNL     1      42.396 -36.090 -30.824  0.00  0.00    -0.015 C 
ATOM      8  N   UNL     1      42.293 -37.041 -31.117  0.00  0.00    -0.390 NA
ATOM      9  C   UNL     1      43.251 -37.056 -31.404  0.00  0.00    -0.015 C 
ATOM     10  C   UNL     1      42.190 -37.991 -31.411  0.00  0.00    -0.015 C 
ENDBRANCH   1   8
BRANCH   5  11
ATOM     11  N   UNL     1      37.978 -35.194 -31.617  0.00  0.00    +0.056 N 
ATOM     12  O   UNL     1      38.399 -34.065 -31.901  0.00  0.00    -0.126 OA
ATOM     13  O   UNL     1      36.830 -35.602 -31.817  0.00  0.00    -0.126 OA
ENDBRANCH   5  11
TORSDOF 2
ENDMDL
MODEL 7
REMARK VINA RESULT:    -5.630     30.431     32.095
REMARK INTER + INTRA:          -6.445
REMARK INTER:                  -6.308
REMARK INTRA:                  -0.137
REMARK UNBOUND:                -0.156
REMARK  Name = cpd217.pdb
REMARK  5 active torsions:
REMARK  status: ('A' for Active; 'I' for Inactive)
REMARK    1  A    between atoms: C_1  and  N_2
REMARK    2  A    between atoms: N_2  and  C_3
REMARK    3  A    between atoms: N_2  and  C_4
REMARK    4  A    between atoms: N_2  and  C_5
REMARK    5  A    between atoms: C_9  and  N_10
REMARK                            x       y       z     vdW  Elec       q    Type
REMARK                         _______ _______ _______ _____ _____    ______ ____
ROOT
ATOM      1  C   UNL     1      64.248 -23.820  -5.928  0.00  0.00    +0.017 A 
ATOM      2  C   UNL     1      62.823 -23.868  -6.422  0.00  0.00    -0.042 A 
ATOM      3  C   UNL     1      62.187 -25.031  -6.883  0.00  0.00    -0.058 A 
ATOM      4  C   UNL     1      62.868 -26.249  -6.917  0.00  0.00    -0.031 A 
ATOM      5  C   UNL     1      64.195 -26.333  -6.481  0.00  0.00    +0.128 A 
ATOM      6  C   UNL     1      64.872 -25.195  -5.995  0.00  0.00    -0.012 A 
ENDROOT
BRANCH   1   8
ATOM      7  C   UNL     1      64.649 -23.312  -4.670  0.00  0.00    -0.015 C 
ATOM      8  N   UNL     1      64.719 -22.995  -5.616  0.00  0.00    -0.390 NA
ATOM      9  C   UNL     1      65.191 -22.170  -5.304  0.00  0.00    -0.015 C 
ATOM     10  C   UNL     1      64.790 -22.677  -6.561  0.00  0.00    -0.015 C 
ENDBRANCH   1   8
BRANCH   5  11
ATOM     11  N   UNL     1      64.906 -27.617  -6.554  0.00  0.00    +0.056 N 
ATOM     12  O   UNL     1      64.216 -28.642  -6.476  0.00  0.00    -0.126 OA
ATOM     13  O   UNL     1      66.133 -27.588  -6.685  0.00  0.00    -0.126 OA
ENDBRANCH   5  11
TORSDOF 2
ENDMDL
MODEL 8
REMARK VINA RESULT:    -5.519      8.248     10.043
REMARK INTER + INTRA:          -6.320
REMARK INTER:                  -6.189
REMARK INTRA:                  -0.131
REMARK UNBOUND:                -0.156
REMARK  Name = cpd217.pdb
REMARK  5 active torsions:
REMARK  status: ('A' for Active; 'I' for Inactive)
REMARK    1  A    between atoms: C_1  and  N_2
REMARK    2  A    between atoms: N_2  and  C_3
REMARK    3  A    between atoms: N_2  and  C_4
REMARK    4  A    between atoms: N_2  and  C_5
REMARK    5  A    between atoms: C_9  and  N_10
REMARK                            x       y       z     vdW  Elec       q    Type
REMARK                         _______ _______ _______ _____ _____    ______ ____
ROOT
ATOM      1  C   UNL     1      38.014 -37.195 -29.977  0.00  0.00    +0.017 A 
ATOM      2  C   UNL     1      38.875 -37.953 -28.997  0.00  0.00    -0.042 A 
ATOM      3  C   UNL     1      40.277 -37.992 -29.043  0.00  0.00    -0.058 A 
ATOM      4  C   UNL     1      40.974 -37.311 -30.042  0.00  0.00    -0.031 A 
ATOM      5  C   UNL     1      40.287 -36.569 -31.009  0.00  0.00    +0.128 A 
ATOM      6  C   UNL     1      38.878 -36.488 -30.996  0.00  0.00    -0.012 A 
ENDROOT
BRANCH   1   8
ATOM      7  C   UNL     1      36.994 -37.763 -30.777  0.00  0.00    -0.015 C 
ATOM      8  N   UNL     1      37.014 -37.176 -29.968  0.00  0.00    -0.390 NA
ATOM      9  C   UNL     1      36.014 -37.157 -29.958  0.00  0.00    -0.015 C 
ATOM     10  C   UNL     1      37.033 -36.589 -29.159  0.00  0.00    -0.015 C 
ENDBRANCH   1   8
BRANCH   5  11
ATOM     11  N   UNL     1      41.037 -35.885 -32.072  0.00  0.00    +0.056 N 
ATOM     12  O   UNL     1      42.272 -35.922 -31.996  0.00  0.00    -0.126 OA
ATOM     13  O   UNL     1      40.390 -35.323 -32.961  0.00  0.00    -0.126 OA
ENDBRANCH   5  11
TORSDOF 2
ENDMDL
MODEL 9
REMARK VINA RESULT:    -5.489      7.962      9.313
REMARK INTER + INTRA:          -6.287
REMARK INTER:                  -6.469
REMARK INTRA:                   0.182
REMARK UNBOUND:                -0.156
REMARK  Name = cpd217.pdb
REMARK  5 active torsions:
REMARK  status: ('A' for Active; 'I' for Inactive)
REMARK    1  A    between atoms: C_1  and  N_2
REMARK    2  A    between atoms: N_2  and  C_3
REMARK    3  A    between atoms: N_2  and  C_4
REMARK    4  A    between atoms: N_2  and  C_5
REMARK    5  A    between atoms: C_9  and  N_10
REMARK                            x       y       z     vdW  Elec       q    Type
REMARK                         _______ _______ _______ _____ _____    ______ ____
ROOT
ATOM      1  C   UNL     1      39.320 -36.205 -30.923  0.00  0.00    +0.017 A 
ATOM      2  C   UNL     1      40.740 -36.682 -30.735  0.00  0.00    -0.042 A 
ATOM      3  C   UNL     1      41.126 -37.664 -29.809  0.00  0.00    -0.058 A 
ATOM      4  C   UNL     1      40.182 -38.268 -28.977  0.00  0.00    -0.031 A 
ATOM      5  C   UNL     1      38.831 -37.911 -29.060  0.00  0.00    +0.128 A 
ATOM      6  C   UNL     1      38.392 -36.941 -29.984  0.00  0.00    -0.012 A 
ENDROOT
BRANCH   1   8
ATOM      7  C   UNL     1      39.977 -35.161 -31.616  0.00  0.00    -0.015 C 
ATOM      8  N   UNL     1      39.035 -35.493 -31.564  0.00  0.00    -0.390 NA
ATOM      9  C   UNL     1      38.749 -34.780 -32.206  0.00  0.00    -0.015 C 
ATOM     10  C   UNL     1      38.093 -35.824 -31.513  0.00  0.00    -0.015 C 
ENDBRANCH   1   8
BRANCH   5  11
ATOM     11  N   UNL     1      37.857 -38.535 -28.154  0.00  0.00    +0.056 N 
ATOM     12  O   UNL     1      37.057 -37.778 -27.588  0.00  0.00    -0.126 OA
ATOM     13  O   UNL     1      37.901 -39.762 -28.018  0.00  0.00    -0.126 OA
ENDBRANCH   5  11
TORSDOF 2
ENDMDL
MODEL 10
REMARK VINA RESULT:    -5.399     25.469     26.445
REMARK INTER + INTRA:          -6.186
REMARK INTER:                  -6.060
REMARK INTRA:                  -0.126
REMARK UNBOUND:                -0.156
REMARK  Name = cpd217.pdb
REMARK  5 active torsions:
REMARK  status: ('A' for Active; 'I' for Inactive)
REMARK    1  A    between atoms: C_1  and  N_2
REMARK    2  A    between atoms: N_2  and  C_3
REMARK    3  A    between atoms: N_2  and  C_4
REMARK    4  A    between atoms: N_2  and  C_5
REMARK    5  A    between atoms: C_9  and  N_10
REMARK                            x       y       z     vdW  Elec       q    Type
REMARK                         _______ _______ _______ _____ _____    ______ ____
ROOT
ATOM      1  C   UNL     1      56.931 -23.166 -48.144  0.00  0.00    +0.017 A 
ATOM      2  C   UNL     1      58.366 -22.741 -48.341  0.00  0.00    -0.042 A 
ATOM      3  C   UNL     1      58.949 -21.622 -47.728  0.00  0.00    -0.058 A 
ATOM      4  C   UNL     1      58.202 -20.808 -46.876  0.00  0.00    -0.031 A 
ATOM      5  C   UNL     1      56.859 -21.100 -46.611  0.00  0.00    +0.128 A 
ATOM      6  C   UNL     1      56.232 -22.222 -47.193  0.00  0.00    -0.012 A 
ENDROOT
BRANCH   1   8
ATOM      7  C   UNL     1      55.973 -23.326 -49.173  0.00  0.00    -0.015 C 
ATOM      8  N   UNL     1      56.497 -23.948 -48.591  0.00  0.00    -0.390 NA
ATOM      9  C   UNL     1      56.064 -24.731 -49.038  0.00  0.00    -0.015 C 
ATOM     10  C   UNL     1      57.021 -24.571 -48.009  0.00  0.00    -0.015 C 
ENDBRANCH   1   8
BRANCH   5  11
ATOM     11  N   UNL     1      56.079 -20.212 -45.736  0.00  0.00    +0.056 N 
ATOM     12  O   UNL     1      56.716 -19.383 -45.074  0.00  0.00    -0.126 OA
ATOM     13  O   UNL     1      54.853 -20.354 -45.720  0.00  0.00    -0.126 OA
ENDBRANCH   5  11
TORSDOF 2
ENDMDL
MODEL 11
REMARK VINA RESULT:    -5.332      1.341      2.171
REMARK INTER + INTRA:          -6.111
REMARK INTER:                  -5.965
REMARK INTRA:                  -0.146
REMARK UNBOUND:                -0.156
REMARK  Name = cpd217.pdb
REMARK  5 active torsions:
REMARK  status: ('A' for Active; 'I' for Inactive)
REMARK    1  A    between atoms: C_1  and  N_2
REMARK    2  A    between atoms: N_2  and  C_3
REMARK    3  A    between atoms: N_2  and  C_4
REMARK    4  A    between atoms: N_2  and  C_5
REMARK    5  A    between atoms: C_9  and  N_10
REMARK                            x       y       z     vdW  Elec       q    Type
REMARK                         _______ _______ _______ _____ _____    ______ ____
ROOT
ATOM      1  C   UNL     1      49.133 -38.330 -29.659  0.00  0.00    +0.017 A 
ATOM      2  C   UNL     1      48.281 -37.112 -29.398  0.00  0.00    -0.042 A 
ATOM      3  C   UNL     1      46.903 -37.153 -29.135  0.00  0.00    -0.058 A 
ATOM      4  C   UNL     1      46.221 -38.371 -29.107  0.00  0.00    -0.031 A 
ATOM      5  C   UNL     1      46.902 -39.572 -29.332  0.00  0.00    +0.128 A 
ATOM      6  C   UNL     1      48.290 -39.583 -29.586  0.00  0.00    -0.012 A 
ENDROOT
BRANCH   1   8
ATOM      7  C   UNL     1      49.905 -38.418 -30.840  0.00  0.00    -0.015 C 
ATOM      8  N   UNL     1      50.111 -38.312 -29.867  0.00  0.00    -0.390 NA
ATOM      9  C   UNL     1      51.089 -38.295 -30.076  0.00  0.00    -0.015 C 
ATOM     10  C   UNL     1      50.316 -38.206 -28.895  0.00  0.00    -0.015 C 
ENDBRANCH   1   8
BRANCH   5  11
ATOM     11  N   UNL     1      46.161 -40.841 -29.331  0.00  0.00    +0.056 N 
ATOM     12  O   UNL     1      46.140 -41.476 -30.394  0.00  0.00    -0.126 OA
ATOM     13  O   UNL     1      45.613 -41.186 -28.280  0.00  0.00    -0.126 OA
ENDBRANCH   5  11
TORSDOF 2
ENDMDL
MODEL 12
REMARK VINA RESULT:    -5.193     10.255     11.826
REMARK INTER + INTRA:          -5.956
REMARK INTER:                  -5.791
REMARK INTRA:                  -0.165
REMARK UNBOUND:                -0.156
REMARK  Name = cpd217.pdb
REMARK  5 active torsions:
REMARK  status: ('A' for Active; 'I' for Inactive)
REMARK    1  A    between atoms: C_1  and  N_2
REMARK    2  A    between atoms: N_2  and  C_3
REMARK    3  A    between atoms: N_2  and  C_4
REMARK    4  A    between atoms: N_2  and  C_5
REMARK    5  A    between atoms: C_9  and  N_10
REMARK                            x       y       z     vdW  Elec       q    Type
REMARK                         _______ _______ _______ _____ _____    ______ ____
ROOT
ATOM      1  C   UNL     1      36.219 -35.309 -30.912  0.00  0.00    +0.017 A 
ATOM      2  C   UNL     1      36.307 -36.123 -29.645  0.00  0.00    -0.042 A 
ATOM      3  C   UNL     1      37.452 -36.823 -29.234  0.00  0.00    -0.058 A 
ATOM      4  C   UNL     1      38.611 -36.809 -30.010  0.00  0.00    -0.031 A 
ATOM      5  C   UNL     1      38.655 -36.086 -31.208  0.00  0.00    +0.128 A 
ATOM      6  C   UNL     1      37.535 -35.354 -31.656  0.00  0.00    -0.012 A 
ENDROOT
BRANCH   1   8
ATOM      7  C   UNL     1      35.152 -35.609 -31.790  0.00  0.00    -0.015 C 
ATOM      8  N   UNL     1      35.404 -34.822 -31.227  0.00  0.00    -0.390 NA
ATOM      9  C   UNL     1      34.589 -34.335 -31.541  0.00  0.00    -0.015 C 
ATOM     10  C   UNL     1      35.657 -34.035 -30.663  0.00  0.00    -0.015 C 
ENDBRANCH   1   8
BRANCH   5  11
ATOM     11  N   UNL     1      39.875 -36.109 -32.028  0.00  0.00    +0.056 N 
ATOM     12  O   UNL     1      40.683 -37.018 -31.800  0.00  0.00    -0.126 OA
ATOM     13  O   UNL     1      40.010 -35.226 -32.881  0.00  0.00    -0.126 OA
ENDBRANCH   5  11
TORSDOF 2
ENDMDL
MODEL 13
REMARK VINA RESULT:    -5.181     29.605     30.722
REMARK INTER + INTRA:          -5.943
REMARK INTER:                  -5.865
REMARK INTRA:                  -0.079
REMARK UNBOUND:                -0.156
REMARK  Name = cpd217.pdb
REMARK  5 active torsions:
REMARK  status: ('A' for Active; 'I' for Inactive)
REMARK    1  A    between atoms: C_1  and  N_2
REMARK    2  A    between atoms: N_2  and  C_3
REMARK    3  A    between atoms: N_2  and  C_4
REMARK    4  A    between atoms: N_2  and  C_5
REMARK    5  A    between atoms: C_9  and  N_10
REMARK                            x       y       z     vdW  Elec       q    Type
REMARK                         _______ _______ _______ _____ _____    ______ ____
ROOT
ATOM      1  C   UNL     1      63.134 -25.220  -7.027  0.00  0.00    +0.017 A 
ATOM      2  C   UNL     1      63.122 -24.060  -6.061  0.00  0.00    -0.042 A 
ATOM      3  C   UNL     1      63.117 -22.711  -6.447  0.00  0.00    -0.058 A 
ATOM      4  C   UNL     1      63.132 -22.358  -7.798  0.00  0.00    -0.031 A 
ATOM      5  C   UNL     1      63.141 -23.344  -8.790  0.00  0.00    +0.128 A 
ATOM      6  C   UNL     1      63.131 -24.714  -8.451  0.00  0.00    -0.012 A 
ENDROOT
BRANCH   1   8
ATOM      7  C   UNL     1      62.274 -26.327  -7.211  0.00  0.00    -0.015 C 
ATOM      8  N   UNL     1      63.157 -26.185  -6.765  0.00  0.00    -0.390 NA
ATOM      9  C   UNL     1      63.181 -27.149  -6.503  0.00  0.00    -0.015 C 
ATOM     10  C   UNL     1      64.040 -26.042  -6.318  0.00  0.00    -0.015 C 
ENDBRANCH   1   8
BRANCH   5  11
ATOM     11  N   UNL     1      63.189 -22.954 -10.206  0.00  0.00    +0.056 N 
ATOM     12  O   UNL     1      63.029 -23.855 -11.039  0.00  0.00    -0.126 OA
ATOM     13  O   UNL     1      63.386 -21.763 -10.467  0.00  0.00    -0.126 OA
ENDBRANCH   5  11
TORSDOF 2
ENDMDL
MODEL 14
REMARK VINA RESULT:    -5.174      8.072      8.994
REMARK INTER + INTRA:          -5.935
REMARK INTER:                  -5.950
REMARK INTRA:                   0.014
REMARK UNBOUND:                -0.156
REMARK  Name = cpd217.pdb
REMARK  5 active torsions:
REMARK  status: ('A' for Active; 'I' for Inactive)
REMARK    1  A    between atoms: C_1  and  N_2
REMARK    2  A    between atoms: N_2  and  C_3
REMARK    3  A    between atoms: N_2  and  C_4
REMARK    4  A    between atoms: N_2  and  C_5
REMARK    5  A    between atoms: C_9  and  N_10
REMARK                            x       y       z     vdW  Elec       q    Type
REMARK                         _______ _______ _______ _____ _____    ______ ____
ROOT
ATOM      1  C   UNL     1      40.277 -36.773 -31.051  0.00  0.00    +0.017 A 
ATOM      2  C   UNL     1      40.991 -37.531 -29.958  0.00  0.00    -0.042 A 
ATOM      3  C   UNL     1      40.345 -38.153 -28.877  0.00  0.00    -0.058 A 
ATOM      4  C   UNL     1      38.957 -38.094 -28.749  0.00  0.00    -0.031 A 
ATOM      5  C   UNL     1      38.183 -37.422 -29.702  0.00  0.00    +0.128 A 
ATOM      6  C   UNL     1      38.785 -36.794 -30.813  0.00  0.00    -0.012 A 
ENDROOT
BRANCH   1   8
ATOM      7  C   UNL     1      41.250 -37.138 -32.010  0.00  0.00    -0.015 C 
ATOM      8  N   UNL     1      40.726 -36.309 -31.814  0.00  0.00    -0.390 NA
ATOM      9  C   UNL     1      41.175 -35.845 -32.578  0.00  0.00    -0.015 C 
ATOM     10  C   UNL     1      40.202 -35.480 -31.618  0.00  0.00    -0.015 C 
ENDBRANCH   1   8
BRANCH   5  11
ATOM     11  N   UNL     1      36.725 -37.343 -29.532  0.00  0.00    +0.056 N 
ATOM     12  O   UNL     1      36.033 -37.657 -30.509  0.00  0.00    -0.126 OA
ATOM     13  O   UNL     1      36.293 -36.970 -28.438  0.00  0.00    -0.126 OA
ENDBRANCH   5  11
TORSDOF 2
ENDMDL
MODEL 15
REMARK VINA RESULT:    -5.124      8.732      9.984
REMARK INTER + INTRA:          -5.880
REMARK INTER:                  -6.086
REMARK INTRA:                   0.207
REMARK UNBOUND:                -0.156
REMARK  Name = cpd217.pdb
REMARK  5 active torsions:
REMARK  status: ('A' for Active; 'I' for Inactive)
REMARK    1  A    between atoms: C_1  and  N_2
REMARK    2  A    between atoms: N_2  and  C_3
REMARK    3  A    between atoms: N_2  and  C_4
REMARK    4  A    between atoms: N_2  and  C_5
REMARK    5  A    between atoms: C_9  and  N_10
REMARK                            x       y       z     vdW  Elec       q    Type
REMARK                         _______ _______ _______ _____ _____    ______ ____
ROOT
ATOM      1  C   UNL     1      39.725 -36.786 -30.847  0.00  0.00    +0.017 A 
ATOM      2  C   UNL     1      39.350 -37.612 -29.640  0.00  0.00    -0.042 A 
ATOM      3  C   UNL     1      38.125 -37.510 -28.963  0.00  0.00    -0.058 A 
ATOM      4  C   UNL     1      37.155 -36.598 -29.382  0.00  0.00    -0.031 A 
ATOM      5  C   UNL     1      37.383 -35.777 -30.492  0.00  0.00    +0.128 A 
ATOM      6  C   UNL     1      38.593 -35.853 -31.214  0.00  0.00    -0.012 A 
ENDROOT
BRANCH   1   8
ATOM      7  C   UNL     1      40.225 -36.283 -32.069  0.00  0.00    -0.015 C 
ATOM      8  N   UNL     1      40.601 -36.835 -31.325  0.00  0.00    -0.390 NA
ATOM      9  C   UNL     1      41.478 -36.884 -31.804  0.00  0.00    -0.015 C 
ATOM     10  C   UNL     1      40.977 -37.387 -30.581  0.00  0.00    -0.015 C 
ENDBRANCH   1   8
BRANCH   5  11
ATOM     11  N   UNL     1      36.363 -34.801 -30.899  0.00  0.00    +0.056 N 
ATOM     12  O   UNL     1      35.193 -35.202 -30.942  0.00  0.00    -0.126 OA
ATOM     13  O   UNL     1      36.738 -33.656 -31.170  0.00  0.00    -0.126 OA
ENDBRANCH   5  11
TORSDOF 2
ENDMDL
MODEL 16
REMARK VINA RESULT:    -5.027     21.194     22.465
REMARK INTER + INTRA:          -5.770
REMARK INTER:                  -5.628
REMARK INTRA:                  -0.143
REMARK UNBOUND:                -0.156
REMARK  Name = cpd217.pdb
REMARK  5 active torsions:
REMARK  status: ('A' for Active; 'I' for Inactive)
REMARK    1  A    between atoms: C_1  and  N_2
REMARK    2  A    between atoms: N_2  and  C_3
REMARK    3  A    between atoms: N_2  and  C_4
REMARK    4  A    between atoms: N_2  and  C_5
REMARK    5  A    between atoms: C_9  and  N_10
REMARK                            x       y       z     vdW  Elec       q    Type
REMARK                         _______ _______ _______ _____ _____    ______ ____
ROOT
ATOM      1  C   UNL     1      46.612 -21.693 -41.607  0.00  0.00    +0.017 A 
ATOM      2  C   UNL     1      45.405 -21.865 -42.496  0.00  0.00    -0.042 A 
ATOM      3  C   UNL     1      44.550 -20.820 -42.877  0.00  0.00    -0.058 A 
ATOM      4  C   UNL     1      44.775 -19.517 -42.429  0.00  0.00    -0.031 A 
ATOM      5  C   UNL     1      45.864 -19.230 -41.600  0.00  0.00    +0.128 A 
ATOM      6  C   UNL     1      46.761 -20.244 -41.202  0.00  0.00    -0.012 A 
ENDROOT
BRANCH   1   8
ATOM      7  C   UNL     1      46.522 -22.744 -40.665  0.00  0.00    -0.015 C 
ATOM      8  N   UNL     1      47.218 -22.432 -41.312  0.00  0.00    -0.390 NA
ATOM      9  C   UNL     1      47.824 -23.171 -41.017  0.00  0.00    -0.015 C 
ATOM     10  C   UNL     1      47.914 -22.119 -41.959  0.00  0.00    -0.015 C 
ENDBRANCH   1   8
BRANCH   5  11
ATOM     11  N   UNL     1      46.067 -17.858 -41.112  0.00  0.00    +0.056 N 
ATOM     12  O   UNL     1      47.212 -17.558 -40.751  0.00  0.00    -0.126 OA
ATOM     13  O   UNL     1      45.089 -17.105 -41.093  0.00  0.00    -0.126 OA
ENDBRANCH   5  11
TORSDOF 2
ENDMDL
MODEL 17
REMARK VINA RESULT:    -4.980     20.830     22.059
REMARK INTER + INTRA:          -5.719
REMARK INTER:                  -5.549
REMARK INTRA:                  -0.170
REMARK UNBOUND:                -0.156
REMARK  Name = cpd217.pdb
REMARK  5 active torsions:
REMARK  status: ('A' for Active; 'I' for Inactive)
REMARK    1  A    between atoms: C_1  and  N_2
REMARK    2  A    between atoms: N_2  and  C_3
REMARK    3  A    between atoms: N_2  and  C_4
REMARK    4  A    between atoms: N_2  and  C_5
REMARK    5  A    between atoms: C_9  and  N_10
REMARK                            x       y       z     vdW  Elec       q    Type
REMARK                         _______ _______ _______ _____ _____    ______ ____
ROOT
ATOM      1  C   UNL     1      45.687 -19.613 -40.842  0.00  0.00    +0.017 A 
ATOM      2  C   UNL     1      44.774 -19.530 -42.041  0.00  0.00    -0.042 A 
ATOM      3  C   UNL     1      44.603 -20.563 -42.976  0.00  0.00    -0.058 A 
ATOM      4  C   UNL     1      45.302 -21.764 -42.845  0.00  0.00    -0.031 A 
ATOM      5  C   UNL     1      46.178 -21.963 -41.772  0.00  0.00    +0.128 A 
ATOM      6  C   UNL     1      46.372 -20.961 -40.798  0.00  0.00    -0.012 A 
ENDROOT
BRANCH   1   8
ATOM      7  C   UNL     1      45.092 -19.240 -39.615  0.00  0.00    -0.015 C 
ATOM      8  N   UNL     1      45.834 -18.878 -40.180  0.00  0.00    -0.390 NA
ATOM      9  C   UNL     1      45.980 -18.143 -39.518  0.00  0.00    -0.015 C 
ATOM     10  C   UNL     1      46.576 -18.517 -40.745  0.00  0.00    -0.015 C 
ENDBRANCH   1   8
BRANCH   5  11
ATOM     11  N   UNL     1      46.929 -23.222 -41.669  0.00  0.00    +0.056 N 
ATOM     12  O   UNL     1      47.695 -23.336 -40.703  0.00  0.00    -0.126 OA
ATOM     13  O   UNL     1      46.748 -24.073 -42.545  0.00  0.00    -0.126 OA
ENDBRANCH   5  11
TORSDOF 2
ENDMDL
MODEL 18
REMARK VINA RESULT:    -4.605     20.715     21.625
REMARK INTER + INTRA:          -5.299
REMARK INTER:                  -5.138
REMARK INTRA:                  -0.161
REMARK UNBOUND:                -0.156
REMARK  Name = cpd217.pdb
REMARK  5 active torsions:
REMARK  status: ('A' for Active; 'I' for Inactive)
REMARK    1  A    between atoms: C_1  and  N_2
REMARK    2  A    between atoms: N_2  and  C_3
REMARK    3  A    between atoms: N_2  and  C_4
REMARK    4  A    between atoms: N_2  and  C_5
REMARK    5  A    between atoms: C_9  and  N_10
REMARK                            x       y       z     vdW  Elec       q    Type
REMARK                         _______ _______ _______ _____ _____    ______ ____
ROOT
ATOM      1  C   UNL     1      44.724 -20.963 -40.737  0.00  0.00    +0.017 A 
ATOM      2  C   UNL     1      45.257 -19.588 -41.055  0.00  0.00    -0.042 A 
ATOM      3  C   UNL     1      46.556 -19.333 -41.521  0.00  0.00    -0.058 A 
ATOM      4  C   UNL     1      47.460 -20.380 -41.716  0.00  0.00    -0.031 A 
ATOM      5  C   UNL     1      47.082 -21.702 -41.458  0.00  0.00    +0.128 A 
ATOM      6  C   UNL     1      45.782 -22.009 -41.002  0.00  0.00    -0.012 A 
ENDROOT
BRANCH   1   8
ATOM      7  C   UNL     1      44.154 -21.091 -39.449  0.00  0.00    -0.015 C 
ATOM      8  N   UNL     1      43.808 -21.156 -40.385  0.00  0.00    -0.390 NA
ATOM      9  C   UNL     1      42.892 -21.349 -40.033  0.00  0.00    -0.015 C 
ATOM     10  C   UNL     1      43.462 -21.222 -41.321  0.00  0.00    -0.015 C 
ENDBRANCH   1   8
BRANCH   5  11
ATOM     11  N   UNL     1      48.057 -22.787 -41.638  0.00  0.00    +0.056 N 
ATOM     12  O   UNL     1      47.778 -23.653 -42.477  0.00  0.00    -0.126 OA
ATOM     13  O   UNL     1      49.079 -22.762 -40.946  0.00  0.00    -0.126 OA
ENDBRANCH   5  11
TORSDOF 2
ENDMDL
MODEL 19
REMARK VINA RESULT:    -4.569     30.424     31.403
REMARK INTER + INTRA:          -5.260
REMARK INTER:                  -5.104
REMARK INTRA:                  -0.155
REMARK UNBOUND:                -0.156
REMARK  Name = cpd217.pdb
REMARK  5 active torsions:
REMARK  status: ('A' for Active; 'I' for Inactive)
REMARK    1  A    between atoms: C_1  and  N_2
REMARK    2  A    between atoms: N_2  and  C_3
REMARK    3  A    between atoms: N_2  and  C_4
REMARK    4  A    between atoms: N_2  and  C_5
REMARK    5  A    between atoms: C_9  and  N_10
REMARK                            x       y       z     vdW  Elec       q    Type
REMARK                         _______ _______ _______ _____ _____    ______ ____
ROOT
ATOM      1  C   UNL     1      63.192 -25.294  -7.297  0.00  0.00    +0.017 A 
ATOM      2  C   UNL     1      63.150 -24.942  -8.764  0.00  0.00    -0.042 A 
ATOM      3  C   UNL     1      63.109 -23.630  -9.260  0.00  0.00    -0.058 A 
ATOM      4  C   UNL     1      63.095 -22.540  -8.388  0.00  0.00    -0.031 A 
ATOM      5  C   UNL     1      63.133 -22.737  -7.003  0.00  0.00    +0.128 A 
ATOM      6  C   UNL     1      63.191 -24.037  -6.457  0.00  0.00    -0.012 A 
ENDROOT
BRANCH   1   8
ATOM      7  C   UNL     1      64.190 -26.159  -6.791  0.00  0.00    -0.015 C 
ATOM      8  N   UNL     1      63.201 -26.224  -6.930  0.00  0.00    -0.390 NA
ATOM      9  C   UNL     1      63.211 -27.154  -6.563  0.00  0.00    -0.015 C 
ATOM     10  C   UNL     1      62.213 -26.289  -7.068  0.00  0.00    -0.015 C 
ENDBRANCH   1   8
BRANCH   5  11
ATOM     11  N   UNL     1      63.086 -21.578  -6.101  0.00  0.00    +0.056 N 
ATOM     12  O   UNL     1      62.594 -21.764  -4.980  0.00  0.00    -0.126 OA
ATOM     13  O   UNL     1      63.534 -20.506  -6.518  0.00  0.00    -0.126 OA
ENDBRANCH   5  11
TORSDOF 2
ENDMDL
MODEL 20
REMARK VINA RESULT:    -4.427     19.884     21.105
REMARK INTER + INTRA:          -5.101
REMARK INTER:                  -4.944
REMARK INTRA:                  -0.157
REMARK UNBOUND:                -0.156
REMARK  Name = cpd217.pdb
REMARK  5 active torsions:
REMARK  status: ('A' for Active; 'I' for Inactive)
REMARK    1  A    between atoms: C_1  and  N_2
REMARK    2  A    between atoms: N_2  and  C_3
REMARK    3  A    between atoms: N_2  and  C_4
REMARK    4  A    between atoms: N_2  and  C_5
REMARK    5  A    between atoms: C_9  and  N_10
REMARK                            x       y       z     vdW  Elec       q    Type
REMARK                         _______ _______ _______ _____ _____    ______ ____
ROOT
ATOM      1  C   UNL     1      46.570 -21.768 -40.925  0.00  0.00    +0.017 A 
ATOM      2  C   UNL     1      46.629 -20.429 -41.617  0.00  0.00    -0.042 A 
ATOM      3  C   UNL     1      45.565 -19.513 -41.657  0.00  0.00    -0.058 A 
ATOM      4  C   UNL     1      44.349 -19.810 -41.040  0.00  0.00    -0.031 A 
ATOM      5  C   UNL     1      44.172 -21.021 -40.363  0.00  0.00    +0.128 A 
ATOM      6  C   UNL     1      45.216 -21.967 -40.283  0.00  0.00    -0.012 A 
ENDROOT
BRANCH   1   8
ATOM      7  C   UNL     1      47.013 -22.795 -41.791  0.00  0.00    -0.015 C 
ATOM      8  N   UNL     1      47.313 -22.438 -40.907  0.00  0.00    -0.390 NA
ATOM      9  C   UNL     1      48.055 -23.107 -40.888  0.00  0.00    -0.015 C 
ATOM     10  C   UNL     1      47.612 -22.081 -40.022  0.00  0.00    -0.015 C 
ENDBRANCH   1   8
BRANCH   5  11
ATOM     11  N   UNL     1      42.873 -21.329 -39.747  0.00  0.00    +0.056 N 
ATOM     12  O   UNL     1      42.759 -21.090 -38.538  0.00  0.00    -0.126 OA
ATOM     13  O   UNL     1      41.992 -21.803 -40.470  0.00  0.00    -0.126 OA
ENDBRANCH   5  11
TORSDOF 2
ENDMDL
