REMARK  Name = cpd217.pdb
REMARK  5 active torsions:
REMARK  status: ('A' for Active; 'I' for Inactive)
REMARK    1  A    between atoms: C_1  and  N_2
REMARK    2  A    between atoms: N_2  and  C_3
REMARK    3  A    between atoms: N_2  and  C_4
REMARK    4  A    between atoms: N_2  and  C_5
REMARK    5  A    between atoms: C_9  and  N_10
REMARK                            x       y       z     vdW  Elec       q    Type
REMARK                         _______ _______ _______ _____ _____    ______ ____
ROOT
ATOM      1  C   UNL     1       0.000   0.000   0.000  0.00  0.00    +0.017 A 
ATOM      2  C   UNL     1      -0.866  -0.009   1.236  0.00  0.00    -0.042 A 
ATOM      3  C   UNL     1      -2.269   0.020   1.217  0.00  0.00    -0.058 A 
ATOM      4  C   UNL     1      -2.963   0.068   0.007  0.00  0.00    -0.031 A 
ATOM      5  C   UNL     1      -2.271   0.078  -1.209  0.00  0.00    +0.128 A 
ATOM      6  C   UNL     1      -0.861   0.035  -1.242  0.00  0.00    -0.012 A 
ENDROOT
BRANCH   1   8
ATOM      7  C   UNL     1       1.000  -1.000   0.000  0.00  0.00    -0.015 C 
ATOM      8  N   UNL     1       1.000   0.000   0.000  0.00  0.00    -0.390 NA
ATOM      9  C   UNL     1       2.000   0.000   0.000  0.00  0.00    -0.015 C 
ATOM     10  C   UNL     1       1.000   1.000   0.000  0.00  0.00    -0.015 C 
ENDBRANCH   1   8
BRANCH   5  11
ATOM     11  N   UNL     1      -3.018   0.161  -2.472  0.00  0.00    +0.056 N 
ATOM     12  O   UNL     1      -2.355   0.345  -3.501  0.00  0.00    -0.126 OA
ATOM     13  O   UNL     1      -4.246   0.044  -2.422  0.00  0.00    -0.126 OA
ENDBRANCH   5  11
TORSDOF 2
