REMARK  Name = cpd339.pdb
REMARK  13 active torsions:
REMARK  status: ('A' for Active; 'I' for Inactive)
REMARK    1  A    between atoms: C_1  and  C_2
REMARK    2  A    between atoms: C_2  and  C_4
REMARK    3  A    between atoms: C_4  and  C_13
REMARK    4  A    between atoms: C_5  and  C_6
REMARK    5  A    between atoms: C_9  and  O_10
REMARK    6  A    between atoms: N_15  and  C_16
REMARK    7  A    between atoms: C_16  and  C_17
REMARK    8  A    between atoms: C_17  and  C_18
REMARK    9  A    between atoms: C_18  and  C_19
REMARK   10  A    between atoms: C_19  and  C_20
REMARK   11  A    between atoms: C_20  and  C_21
REMARK   12  A    between atoms: C_21  and  N_22
REMARK   13  A    between atoms: N_22  and  C_23
REMARK                            x       y       z     vdW  Elec       q    Type
REMARK                         _______ _______ _______ _____ _____    ______ ____
ROOT
ATOM      1  C   UNL A   1      -5.312  -0.077  -0.021  0.00  0.00    -0.052 C 
ENDROOT
BRANCH   1   2
ATOM      2  C   UNL A   1      -6.448  -1.088  -0.172  0.00  0.00    -0.037 C 
BRANCH   2   3
ATOM      3  C   UNL A   1      -7.765  -0.399  -0.519  0.00  0.00    +0.012 C 
BRANCH   3   6
ATOM      4  C   UNL A   1      -9.586  -1.569   0.663  0.00  0.00    +0.247 C 
ATOM      5  O   UNL A   1      -9.410  -0.955   1.709  0.00  0.00    -0.270 OA
ATOM      6  N   UNL A   1      -8.870  -1.337  -0.491  0.00  0.00    -0.311 N 
ATOM      7  H   UNL A   1      -9.114  -1.819  -1.314  0.00  0.00    +0.000 HD
BRANCH   4   8
ATOM      8  C   UNL A   1     -10.664  -2.594   0.548  0.00  0.00    +0.079 C 
ATOM      9  C   UNL A   1     -10.325  -3.779  -0.002  0.00  0.00    -0.039 C 
BRANCH   9  10
ATOM     10  C   UNL A   1     -11.181  -4.949  -0.234  0.00  0.00    -0.024 A 
ATOM     11  C   UNL A   1     -12.331  -4.874  -1.031  0.00  0.00    -0.051 A 
ATOM     12  C   UNL A   1     -13.104  -6.014  -1.268  0.00  0.00    -0.020 A 
ATOM     13  C   UNL A   1     -12.715  -7.231  -0.719  0.00  0.00    +0.117 A 
ATOM     14  C   UNL A   1     -11.567  -7.327   0.058  0.00  0.00    -0.020 A 
ATOM     15  C   UNL A   1     -10.798  -6.186   0.298  0.00  0.00    -0.051 A 
BRANCH  13  16
ATOM     16  O   UNL A   1     -13.441  -8.367  -0.923  0.00  0.00    -0.507 OA
ATOM     17  H   UNL A   1     -14.221  -8.338  -1.442  0.00  0.00    +0.000 HD
ENDBRANCH  13  16
ENDBRANCH   9  10
BRANCH   8  19
ATOM     18  C   UNL A   1     -12.409  -0.839   1.258  0.00  0.00    -0.001 C 
ATOM     19  C   UNL A   1     -12.010  -2.289   1.134  0.00  0.00    +0.165 C 
ATOM     20  O   UNL A   1     -12.780  -3.173   1.509  0.00  0.00    -0.292 OA
ENDBRANCH   8  19
ENDBRANCH   4   8
ENDBRANCH   3   6
ENDBRANCH   2   3
ENDBRANCH   1   2
BRANCH   1  21
ATOM     21  C   UNL A   1      -3.975  -0.775   0.234  0.00  0.00    -0.052 C 
BRANCH  21  22
ATOM     22  C   UNL A   1      -2.877   0.235   0.579  0.00  0.00    -0.037 C 
BRANCH  22  23
ATOM     23  C   UNL A   1      -1.520  -0.437   0.803  0.00  0.00    +0.009 C 
BRANCH  23  24
ATOM     24  N   UNL A   1      -0.955  -0.852  -0.489  0.00  0.00    -0.343 N 
ATOM     25  H   UNL A   1      -1.362  -0.649  -1.362  0.00  0.00    +0.000 HD
BRANCH  24  26
ATOM     26  C   UNL A   1       0.259  -1.587  -0.320  0.00  0.00    +0.041 A 
ATOM     27  C   UNL A   1       1.505  -0.928  -0.298  0.00  0.00    -0.005 A 
ATOM     28  C   UNL A   1       2.643  -1.707  -0.068  0.00  0.00    +0.047 A 
ATOM     29  N   UNL A   1       2.596  -3.039   0.176  0.00  0.00    -0.251 NA
ATOM     30  C   UNL A   1       1.410  -3.661   0.167  0.00  0.00    +0.073 A 
ATOM     31  C   UNL A   1       1.383  -5.030   0.404  0.00  0.00    -0.036 A 
ATOM     32  C   UNL A   1       0.191  -5.758   0.400  0.00  0.00    -0.060 A 
ATOM     33  C   UNL A   1      -1.008  -5.109   0.148  0.00  0.00    -0.061 A 
ATOM     34  C   UNL A   1      -1.003  -3.735  -0.090  0.00  0.00    -0.051 A 
ATOM     35  C   UNL A   1       0.199  -2.987  -0.076  0.00  0.00    +0.021 A 
ATOM     36  C   UNL A   1       4.023  -1.103  -0.007  0.00  0.00    -0.010 C 
ATOM     37  C   UNL A   1       4.120   0.256  -0.689  0.00  0.00    -0.047 C 
ATOM     38  C   UNL A   1       2.986   1.150  -0.213  0.00  0.00    -0.049 C 
ATOM     39  C   UNL A   1       1.635   0.548  -0.595  0.00  0.00    -0.024 C 
ENDBRANCH  24  26
ENDBRANCH  23  24
ENDBRANCH  22  23
ENDBRANCH  21  22
ENDBRANCH   1  21
TORSDOF 12
