MODEL 1
REMARK VINA RESULT:    -8.417      0.000      0.000
REMARK INTER + INTRA:         -11.656
REMARK INTER:                 -10.878
REMARK INTRA:                  -0.778
REMARK UNBOUND:                -0.778
REMARK  Name = cpd328.pdb
REMARK  5 active torsions:
REMARK  status: ('A' for Active; 'I' for Inactive)
REMARK    1  A    between atoms: C_2  and  C_3
REMARK    2  A    between atoms: C_2  and  C_20
REMARK    3  A    between atoms: C_4  and  C_5
REMARK    4  A    between atoms: N_9  and  C_10
REMARK    5  A    between atoms: C_10  and  C_11
REMARK                            x       y       z     vdW  Elec       q    Type
REMARK                         _______ _______ _______ _____ _____    ______ ____
ROOT
ATOM      1  C   UNL A   1      35.734 -40.140 -30.165  0.00  0.00    -0.009 A 
ATOM      2  C   UNL A   1      36.305 -41.159 -29.403  0.00  0.00    -0.052 A 
ATOM      3  C   UNL A   1      37.336 -40.869 -28.516  0.00  0.00    -0.045 A 
ATOM      4  C   UNL A   1      37.797 -39.564 -28.410  0.00  0.00    +0.005 A 
ATOM      5  N   UNL A   1      37.265 -38.581 -29.173  0.00  0.00    -0.348 N 
ATOM      6  C   UNL A   1      36.252 -38.849 -30.034  0.00  0.00    +0.012 A 
ENDROOT
BRANCH   1   8
ATOM      7  C   UNL A   1      34.643 -39.900 -32.379  0.00  0.00    -0.011 C 
ATOM      8  C   UNL A   1      34.651 -40.386 -31.128  0.00  0.00    -0.049 C 
BRANCH   7  10
ATOM      9  O   UNL A   1      32.763 -39.166 -33.520  0.00  0.00    -0.284 OA
ATOM     10  C   UNL A   1      33.553 -40.101 -33.385  0.00  0.00    +0.221 C 
BRANCH  10  11
ATOM     11  C   UNL A   1      33.457 -41.320 -34.162  0.00  0.00    +0.176 A 
ATOM     12  C   UNL A   1      33.916 -42.592 -33.870  0.00  0.00    -0.005 A 
ATOM     13  C   UNL A   1      33.522 -43.436 -34.939  0.00  0.00    +0.022 A 
ATOM     14  C   UNL A   1      33.668 -44.799 -35.249  0.00  0.00    -0.037 A 
ATOM     15  C   UNL A   1      33.105 -45.272 -36.441  0.00  0.00    +0.019 A 
ATOM     16 BR   UNL A   1      33.287 -47.104 -36.883  0.00  0.00    -0.050 Br
ATOM     17  C   UNL A   1      32.412 -44.425 -37.309  0.00  0.00    -0.044 A 
ATOM     18  C   UNL A   1      32.258 -43.065 -37.014  0.00  0.00    -0.018 A 
ATOM     19  C   UNL A   1      32.828 -42.620 -35.825  0.00  0.00    +0.136 A 
ATOM     20  O   UNL A   1      32.788 -41.341 -35.358  0.00  0.00    -0.452 OA
ENDBRANCH  10  11
ENDBRANCH   7  10
ENDBRANCH   1   8
BRANCH   5  21
ATOM     21  C   UNL A   1      37.777 -37.190 -29.043  0.00  0.00    +0.049 C 
BRANCH  21  22
ATOM     22  C   UNL A   1      38.496 -36.751 -30.297  0.00  0.00    -0.008 A 
ATOM     23  C   UNL A   1      37.802 -35.954 -31.230  0.00  0.00    -0.055 A 
ATOM     24  C   UNL A   1      38.416 -35.532 -32.409  0.00  0.00    -0.060 A 
ATOM     25  C   UNL A   1      39.732 -35.895 -32.679  0.00  0.00    -0.042 A 
ATOM     26  C   UNL A   1      40.443 -36.679 -31.770  0.00  0.00    +0.060 A 
ATOM     27 CL   UNL A   1      42.069 -37.092 -32.181  0.00  0.00    -0.082 Cl
ATOM     28  C   UNL A   1      39.832 -37.109 -30.579  0.00  0.00    +0.064 A 
ATOM     29 CL   UNL A   1      40.718 -38.089 -29.454  0.00  0.00    -0.082 Cl
ENDBRANCH  21  22
ENDBRANCH   5  21
TORSDOF 5
ENDMDL
MODEL 2
REMARK VINA RESULT:    -8.410      6.807      8.916
REMARK INTER + INTRA:         -11.646
REMARK INTER:                 -11.485
REMARK INTRA:                  -0.160
REMARK UNBOUND:                -0.778
REMARK  Name = cpd328.pdb
REMARK  5 active torsions:
REMARK  status: ('A' for Active; 'I' for Inactive)
REMARK    1  A    between atoms: C_2  and  C_3
REMARK    2  A    between atoms: C_2  and  C_20
REMARK    3  A    between atoms: C_4  and  C_5
REMARK    4  A    between atoms: N_9  and  C_10
REMARK    5  A    between atoms: C_10  and  C_11
REMARK                            x       y       z     vdW  Elec       q    Type
REMARK                         _______ _______ _______ _____ _____    ______ ____
ROOT
ATOM      1  C   UNL A   1      35.011 -35.602 -28.955  0.00  0.00    -0.009 A 
ATOM      2  C   UNL A   1      34.633 -36.176 -27.741  0.00  0.00    -0.052 A 
ATOM      3  C   UNL A   1      35.276 -37.321 -27.285  0.00  0.00    -0.045 A 
ATOM      4  C   UNL A   1      36.281 -37.892 -28.053  0.00  0.00    +0.005 A 
ATOM      5  N   UNL A   1      36.625 -37.354 -29.247  0.00  0.00    -0.348 N 
ATOM      6  C   UNL A   1      36.014 -36.231 -29.698  0.00  0.00    +0.012 A 
ENDROOT
BRANCH   1   8
ATOM      7  C   UNL A   1      34.828 -33.713 -30.550  0.00  0.00    -0.011 C 
ATOM      8  C   UNL A   1      34.362 -34.399 -29.496  0.00  0.00    -0.049 C 
BRANCH   7  10
ATOM      9  O   UNL A   1      34.915 -31.845 -31.920  0.00  0.00    -0.284 OA
ATOM     10  C   UNL A   1      34.219 -32.470 -31.121  0.00  0.00    +0.221 C 
BRANCH  10  11
ATOM     11  C   UNL A   1      32.879 -32.051 -30.759  0.00  0.00    +0.176 A 
ATOM     12  C   UNL A   1      32.456 -30.899 -30.120  0.00  0.00    -0.005 A 
ATOM     13  C   UNL A   1      31.041 -30.954 -30.051  0.00  0.00    +0.022 A 
ATOM     14  C   UNL A   1      30.028 -30.123 -29.542  0.00  0.00    -0.037 A 
ATOM     15  C   UNL A   1      28.697 -30.537 -29.685  0.00  0.00    +0.019 A 
ATOM     16 BR   UNL A   1      27.312 -29.437 -29.009  0.00  0.00    -0.050 Br
ATOM     17  C   UNL A   1      28.369 -31.739 -30.316  0.00  0.00    -0.044 A 
ATOM     18  C   UNL A   1      29.367 -32.577 -30.827  0.00  0.00    -0.018 A 
ATOM     19  C   UNL A   1      30.681 -32.144 -30.671  0.00  0.00    +0.136 A 
ATOM     20  O   UNL A   1      31.790 -32.809 -31.099  0.00  0.00    -0.452 OA
ENDBRANCH  10  11
ENDBRANCH   7  10
ENDBRANCH   1   8
BRANCH   5  21
ATOM     21  C   UNL A   1      37.704 -37.984 -30.054  0.00  0.00    +0.049 C 
BRANCH  21  22
ATOM     22  C   UNL A   1      38.616 -36.942 -30.660  0.00  0.00    -0.008 A 
ATOM     23  C   UNL A   1      38.055 -35.960 -31.501  0.00  0.00    -0.055 A 
ATOM     24  C   UNL A   1      38.854 -34.983 -32.095  0.00  0.00    -0.060 A 
ATOM     25  C   UNL A   1      40.226 -34.967 -31.860  0.00  0.00    -0.042 A 
ATOM     26  C   UNL A   1      40.806 -35.925 -31.029  0.00  0.00    +0.060 A 
ATOM     27 CL   UNL A   1      42.515 -35.842 -30.794  0.00  0.00    -0.082 Cl
ATOM     28  C   UNL A   1      40.007 -36.914 -30.426  0.00  0.00    +0.064 A 
ATOM     29 CL   UNL A   1      40.734 -38.107 -29.398  0.00  0.00    -0.082 Cl
ENDBRANCH  21  22
ENDBRANCH   5  21
TORSDOF 5
ENDMDL
MODEL 3
REMARK VINA RESULT:    -8.362      6.960      9.878
REMARK INTER + INTRA:         -11.584
REMARK INTER:                 -10.841
REMARK INTRA:                  -0.743
REMARK UNBOUND:                -0.778
REMARK  Name = cpd328.pdb
REMARK  5 active torsions:
REMARK  status: ('A' for Active; 'I' for Inactive)
REMARK    1  A    between atoms: C_2  and  C_3
REMARK    2  A    between atoms: C_2  and  C_20
REMARK    3  A    between atoms: C_4  and  C_5
REMARK    4  A    between atoms: N_9  and  C_10
REMARK    5  A    between atoms: C_10  and  C_11
REMARK                            x       y       z     vdW  Elec       q    Type
REMARK                         _______ _______ _______ _____ _____    ______ ____
ROOT
ATOM      1  C   UNL A   1      33.855 -37.880 -25.368  0.00  0.00    -0.009 A 
ATOM      2  C   UNL A   1      33.433 -36.551 -25.377  0.00  0.00    -0.052 A 
ATOM      3  C   UNL A   1      32.843 -36.002 -24.244  0.00  0.00    -0.045 A 
ATOM      4  C   UNL A   1      32.668 -36.791 -23.115  0.00  0.00    +0.005 A 
ATOM      5  N   UNL A   1      33.049 -38.090 -23.117  0.00  0.00    -0.348 N 
ATOM      6  C   UNL A   1      33.635 -38.634 -24.213  0.00  0.00    +0.012 A 
ENDROOT
BRANCH   1   8
ATOM      7  C   UNL A   1      35.000 -37.838 -27.567  0.00  0.00    -0.011 C 
ATOM      8  C   UNL A   1      34.474 -38.520 -26.538  0.00  0.00    -0.049 C 
BRANCH   7  10
ATOM      9  O   UNL A   1      35.003 -39.384 -29.294  0.00  0.00    -0.284 OA
ATOM     10  C   UNL A   1      35.616 -38.443 -28.790  0.00  0.00    +0.221 C 
BRANCH  10  11
ATOM     11  C   UNL A   1      36.851 -37.929 -29.348  0.00  0.00    +0.176 A 
ATOM     12  C   UNL A   1      38.158 -38.153 -28.955  0.00  0.00    -0.005 A 
ATOM     13  C   UNL A   1      38.994 -37.455 -29.862  0.00  0.00    +0.022 A 
ATOM     14  C   UNL A   1      40.380 -37.278 -30.019  0.00  0.00    -0.037 A 
ATOM     15  C   UNL A   1      40.832 -36.496 -31.090  0.00  0.00    +0.019 A 
ATOM     16 BR   UNL A   1      42.693 -36.241 -31.324  0.00  0.00    -0.050 Br
ATOM     17  C   UNL A   1      39.942 -35.902 -31.988  0.00  0.00    -0.044 A 
ATOM     18  C   UNL A   1      38.560 -36.069 -31.845  0.00  0.00    -0.018 A 
ATOM     19  C   UNL A   1      38.136 -36.850 -30.773  0.00  0.00    +0.136 A 
ATOM     20  O   UNL A   1      36.840 -37.133 -30.464  0.00  0.00    -0.452 OA
ENDBRANCH  10  11
ENDBRANCH   7  10
ENDBRANCH   1   8
BRANCH   5  21
ATOM     21  C   UNL A   1      32.850 -38.917 -21.897  0.00  0.00    +0.049 C 
BRANCH  21  22
ATOM     22  C   UNL A   1      34.150 -39.123 -21.155  0.00  0.00    -0.008 A 
ATOM     23  C   UNL A   1      34.783 -38.004 -20.577  0.00  0.00    -0.055 A 
ATOM     24  C   UNL A   1      35.991 -38.137 -19.891  0.00  0.00    -0.060 A 
ATOM     25  C   UNL A   1      36.588 -39.388 -19.770  0.00  0.00    -0.042 A 
ATOM     26  C   UNL A   1      35.982 -40.513 -20.329  0.00  0.00    +0.060 A 
ATOM     27 CL   UNL A   1      36.790 -42.027 -20.141  0.00  0.00    -0.082 Cl
ATOM     28  C   UNL A   1      34.764 -40.387 -21.021  0.00  0.00    +0.064 A 
ATOM     29 CL   UNL A   1      34.015 -41.788 -21.721  0.00  0.00    -0.082 Cl
ENDBRANCH  21  22
ENDBRANCH   5  21
TORSDOF 5
ENDMDL
MODEL 4
REMARK VINA RESULT:    -8.247      6.721      9.920
REMARK INTER + INTRA:         -11.435
REMARK INTER:                 -10.705
REMARK INTRA:                  -0.730
REMARK UNBOUND:                -0.778
REMARK  Name = cpd328.pdb
REMARK  5 active torsions:
REMARK  status: ('A' for Active; 'I' for Inactive)
REMARK    1  A    between atoms: C_2  and  C_3
REMARK    2  A    between atoms: C_2  and  C_20
REMARK    3  A    between atoms: C_4  and  C_5
REMARK    4  A    between atoms: N_9  and  C_10
REMARK    5  A    between atoms: C_10  and  C_11
REMARK                            x       y       z     vdW  Elec       q    Type
REMARK                         _______ _______ _______ _____ _____    ______ ____
ROOT
ATOM      1  C   UNL A   1      34.945 -38.059 -27.408  0.00  0.00    -0.009 A 
ATOM      2  C   UNL A   1      34.522 -39.151 -28.166  0.00  0.00    -0.052 A 
ATOM      3  C   UNL A   1      35.089 -39.393 -29.413  0.00  0.00    -0.045 A 
ATOM      4  C   UNL A   1      36.064 -38.532 -29.897  0.00  0.00    +0.005 A 
ATOM      5  N   UNL A   1      36.452 -37.454 -29.175  0.00  0.00    -0.348 N 
ATOM      6  C   UNL A   1      35.914 -37.214 -27.954  0.00  0.00    +0.012 A 
ENDROOT
BRANCH   1   8
ATOM      7  C   UNL A   1      33.592 -36.682 -25.852  0.00  0.00    -0.011 C 
ATOM      8  C   UNL A   1      34.375 -37.745 -26.090  0.00  0.00    -0.049 C 
BRANCH   7  10
ATOM      9  O   UNL A   1      32.351 -35.268 -24.499  0.00  0.00    -0.284 OA
ATOM     10  C   UNL A   1      33.010 -36.307 -24.525  0.00  0.00    +0.221 C 
BRANCH  10  11
ATOM     11  C   UNL A   1      33.204 -37.137 -23.353  0.00  0.00    +0.176 A 
ATOM     12  C   UNL A   1      32.514 -38.265 -22.945  0.00  0.00    -0.005 A 
ATOM     13  C   UNL A   1      33.132 -38.728 -21.757  0.00  0.00    +0.022 A 
ATOM     14  C   UNL A   1      32.924 -39.797 -20.868  0.00  0.00    -0.037 A 
ATOM     15  C   UNL A   1      33.791 -39.928 -19.775  0.00  0.00    +0.019 A 
ATOM     16 BR   UNL A   1      33.533 -41.358 -18.561  0.00  0.00    -0.050 Br
ATOM     17  C   UNL A   1      34.839 -39.030 -19.561  0.00  0.00    -0.044 A 
ATOM     18  C   UNL A   1      35.059 -37.961 -20.438  0.00  0.00    -0.018 A 
ATOM     19  C   UNL A   1      34.183 -37.852 -21.515  0.00  0.00    +0.136 A 
ATOM     20  O   UNL A   1      34.229 -36.889 -22.477  0.00  0.00    -0.452 OA
ENDBRANCH  10  11
ENDBRANCH   7  10
ENDBRANCH   1   8
BRANCH   5  21
ATOM     21  C   UNL A   1      37.498 -36.544 -29.715  0.00  0.00    +0.049 C 
BRANCH  21  22
ATOM     22  C   UNL A   1      38.855 -37.208 -29.715  0.00  0.00    -0.008 A 
ATOM     23  C   UNL A   1      39.234 -37.970 -28.591  0.00  0.00    -0.055 A 
ATOM     24  C   UNL A   1      40.481 -38.594 -28.536  0.00  0.00    -0.060 A 
ATOM     25  C   UNL A   1      41.371 -38.469 -29.598  0.00  0.00    -0.042 A 
ATOM     26  C   UNL A   1      41.020 -37.724 -30.724  0.00  0.00    +0.060 A 
ATOM     27 CL   UNL A   1      42.182 -37.611 -31.997  0.00  0.00    -0.082 Cl
ATOM     28  C   UNL A   1      39.764 -37.092 -30.788  0.00  0.00    +0.064 A 
ATOM     29 CL   UNL A   1      39.333 -36.161 -32.188  0.00  0.00    -0.082 Cl
ENDBRANCH  21  22
ENDBRANCH   5  21
TORSDOF 5
ENDMDL
MODEL 5
REMARK VINA RESULT:    -7.991      2.908      3.603
REMARK INTER + INTRA:         -11.104
REMARK INTER:                 -10.288
REMARK INTRA:                  -0.816
REMARK UNBOUND:                -0.778
REMARK  Name = cpd328.pdb
REMARK  5 active torsions:
REMARK  status: ('A' for Active; 'I' for Inactive)
REMARK    1  A    between atoms: C_2  and  C_3
REMARK    2  A    between atoms: C_2  and  C_20
REMARK    3  A    between atoms: C_4  and  C_5
REMARK    4  A    between atoms: N_9  and  C_10
REMARK    5  A    between atoms: C_10  and  C_11
REMARK                            x       y       z     vdW  Elec       q    Type
REMARK                         _______ _______ _______ _____ _____    ______ ____
ROOT
ATOM      1  C   UNL A   1      35.570 -40.311 -30.912  0.00  0.00    -0.009 A 
ATOM      2  C   UNL A   1      35.294 -41.034 -29.752  0.00  0.00    -0.052 A 
ATOM      3  C   UNL A   1      35.588 -40.490 -28.507  0.00  0.00    -0.045 A 
ATOM      4  C   UNL A   1      36.172 -39.232 -28.434  0.00  0.00    +0.005 A 
ATOM      5  N   UNL A   1      36.469 -38.544 -29.561  0.00  0.00    -0.348 N 
ATOM      6  C   UNL A   1      36.177 -39.060 -30.780  0.00  0.00    +0.012 A 
ENDROOT
BRANCH   1   8
ATOM      7  C   UNL A   1      34.110 -41.358 -32.622  0.00  0.00    -0.011 C 
ATOM      8  C   UNL A   1      35.292 -40.839 -32.257  0.00  0.00    -0.049 C 
BRANCH   7  10
ATOM      9  O   UNL A   1      34.315 -43.009 -34.236  0.00  0.00    -0.284 OA
ATOM     10  C   UNL A   1      33.787 -41.930 -33.967  0.00  0.00    +0.221 C 
BRANCH  10  11
ATOM     11  C   UNL A   1      32.890 -41.252 -34.881  0.00  0.00    +0.176 A 
ATOM     12  C   UNL A   1      31.996 -40.223 -34.641  0.00  0.00    -0.005 A 
ATOM     13  C   UNL A   1      31.398 -39.890 -35.882  0.00  0.00    +0.022 A 
ATOM     14  C   UNL A   1      30.438 -38.959 -36.316  0.00  0.00    -0.037 A 
ATOM     15  C   UNL A   1      30.111 -38.930 -37.678  0.00  0.00    +0.019 A 
ATOM     16 BR   UNL A   1      28.822 -37.686 -38.290  0.00  0.00    -0.050 Br
ATOM     17  C   UNL A   1      30.714 -39.796 -38.593  0.00  0.00    -0.044 A 
ATOM     18  C   UNL A   1      31.671 -40.728 -38.176  0.00  0.00    -0.018 A 
ATOM     19  C   UNL A   1      31.978 -40.737 -36.818  0.00  0.00    +0.136 A 
ATOM     20  O   UNL A   1      32.879 -41.562 -36.215  0.00  0.00    -0.452 OA
ENDBRANCH  10  11
ENDBRANCH   7  10
ENDBRANCH   1   8
BRANCH   5  21
ATOM     21  C   UNL A   1      37.096 -37.198 -29.458  0.00  0.00    +0.049 C 
BRANCH  21  22
ATOM     22  C   UNL A   1      38.548 -37.236 -29.875  0.00  0.00    -0.008 A 
ATOM     23  C   UNL A   1      39.461 -37.954 -29.077  0.00  0.00    -0.055 A 
ATOM     24  C   UNL A   1      40.815 -38.010 -29.411  0.00  0.00    -0.060 A 
ATOM     25  C   UNL A   1      41.281 -37.353 -30.545  0.00  0.00    -0.042 A 
ATOM     26  C   UNL A   1      40.397 -36.638 -31.355  0.00  0.00    +0.060 A 
ATOM     27 CL   UNL A   1      41.055 -35.845 -32.741  0.00  0.00    -0.082 Cl
ATOM     28  C   UNL A   1      39.031 -36.577 -31.025  0.00  0.00    +0.064 A 
ATOM     29 CL   UNL A   1      37.936 -35.682 -32.031  0.00  0.00    -0.082 Cl
ENDBRANCH  21  22
ENDBRANCH   5  21
TORSDOF 5
ENDMDL
MODEL 6
REMARK VINA RESULT:    -7.963      6.859      9.906
REMARK INTER + INTRA:         -11.069
REMARK INTER:                 -10.266
REMARK INTRA:                  -0.803
REMARK UNBOUND:                -0.778
REMARK  Name = cpd328.pdb
REMARK  5 active torsions:
REMARK  status: ('A' for Active; 'I' for Inactive)
REMARK    1  A    between atoms: C_2  and  C_3
REMARK    2  A    between atoms: C_2  and  C_20
REMARK    3  A    between atoms: C_4  and  C_5
REMARK    4  A    between atoms: N_9  and  C_10
REMARK    5  A    between atoms: C_10  and  C_11
REMARK                            x       y       z     vdW  Elec       q    Type
REMARK                         _______ _______ _______ _____ _____    ______ ____
ROOT
ATOM      1  C   UNL A   1      34.024 -34.082 -29.798  0.00  0.00    -0.009 A 
ATOM      2  C   UNL A   1      34.291 -32.722 -29.962  0.00  0.00    -0.052 A 
ATOM      3  C   UNL A   1      33.241 -31.816 -30.061  0.00  0.00    -0.045 A 
ATOM      4  C   UNL A   1      31.933 -32.278 -30.011  0.00  0.00    +0.005 A 
ATOM      5  N   UNL A   1      31.674 -33.601 -29.885  0.00  0.00    -0.348 N 
ATOM      6  C   UNL A   1      32.689 -34.494 -29.776  0.00  0.00    +0.012 A 
ENDROOT
BRANCH   1   8
ATOM      7  C   UNL A   1      35.190 -36.149 -30.517  0.00  0.00    -0.011 C 
ATOM      8  C   UNL A   1      35.090 -35.089 -29.700  0.00  0.00    -0.049 C 
BRANCH   7  10
ATOM      9  O   UNL A   1      35.833 -38.359 -30.245  0.00  0.00    -0.284 OA
ATOM     10  C   UNL A   1      36.240 -37.214 -30.440  0.00  0.00    +0.221 C 
BRANCH  10  11
ATOM     11  C   UNL A   1      37.645 -36.902 -30.605  0.00  0.00    +0.176 A 
ATOM     12  C   UNL A   1      38.749 -37.431 -29.961  0.00  0.00    -0.005 A 
ATOM     13  C   UNL A   1      39.897 -36.820 -30.526  0.00  0.00    +0.022 A 
ATOM     14  C   UNL A   1      41.285 -36.913 -30.326  0.00  0.00    -0.037 A 
ATOM     15  C   UNL A   1      42.124 -36.123 -31.123  0.00  0.00    +0.019 A 
ATOM     16 BR   UNL A   1      43.998 -36.229 -30.875  0.00  0.00    -0.050 Br
ATOM     17  C   UNL A   1      41.610 -35.263 -32.096  0.00  0.00    -0.044 A 
ATOM     18  C   UNL A   1      40.230 -35.160 -32.307  0.00  0.00    -0.018 A 
ATOM     19  C   UNL A   1      39.418 -35.953 -31.501  0.00  0.00    +0.136 A 
ATOM     20  O   UNL A   1      38.058 -36.000 -31.551  0.00  0.00    -0.452 OA
ENDBRANCH  10  11
ENDBRANCH   7  10
ENDBRANCH   1   8
BRANCH   5  21
ATOM     21  C   UNL A   1      30.265 -34.073 -29.835  0.00  0.00    +0.049 C 
BRANCH  21  22
ATOM     22  C   UNL A   1      29.630 -34.050 -31.207  0.00  0.00    -0.008 A 
ATOM     23  C   UNL A   1      28.915 -32.901 -31.602  0.00  0.00    -0.055 A 
ATOM     24  C   UNL A   1      28.301 -32.834 -32.852  0.00  0.00    -0.060 A 
ATOM     25  C   UNL A   1      28.389 -33.909 -33.731  0.00  0.00    -0.042 A 
ATOM     26  C   UNL A   1      29.094 -35.057 -33.367  0.00  0.00    +0.060 A 
ATOM     27 CL   UNL A   1      29.151 -36.350 -34.511  0.00  0.00    -0.082 Cl
ATOM     28  C   UNL A   1      29.717 -35.132 -32.108  0.00  0.00    +0.064 A 
ATOM     29 CL   UNL A   1      30.588 -36.564 -31.657  0.00  0.00    -0.082 Cl
ENDBRANCH  21  22
ENDBRANCH   5  21
TORSDOF 5
ENDMDL
MODEL 7
REMARK VINA RESULT:    -7.939      7.772     10.258
REMARK INTER + INTRA:         -11.037
REMARK INTER:                 -10.273
REMARK INTRA:                  -0.764
REMARK UNBOUND:                -0.778
REMARK  Name = cpd328.pdb
REMARK  5 active torsions:
REMARK  status: ('A' for Active; 'I' for Inactive)
REMARK    1  A    between atoms: C_2  and  C_3
REMARK    2  A    between atoms: C_2  and  C_20
REMARK    3  A    between atoms: C_4  and  C_5
REMARK    4  A    between atoms: N_9  and  C_10
REMARK    5  A    between atoms: C_10  and  C_11
REMARK                            x       y       z     vdW  Elec       q    Type
REMARK                         _______ _______ _______ _____ _____    ______ ____
ROOT
ATOM      1  C   UNL A   1      33.815 -34.207 -29.918  0.00  0.00    -0.009 A 
ATOM      2  C   UNL A   1      34.528 -33.135 -30.455  0.00  0.00    -0.052 A 
ATOM      3  C   UNL A   1      33.894 -31.915 -30.662  0.00  0.00    -0.045 A 
ATOM      4  C   UNL A   1      32.550 -31.781 -30.345  0.00  0.00    +0.005 A 
ATOM      5  N   UNL A   1      31.850 -32.832 -29.854  0.00  0.00    -0.348 N 
ATOM      6  C   UNL A   1      32.459 -34.023 -29.637  0.00  0.00    +0.012 A 
ENDROOT
BRANCH   1   8
ATOM      7  C   UNL A   1      35.485 -35.723 -28.887  0.00  0.00    -0.011 C 
ATOM      8  C   UNL A   1      34.426 -35.525 -29.687  0.00  0.00    -0.049 C 
BRANCH   7  10
ATOM      9  O   UNL A   1      35.475 -37.896 -28.082  0.00  0.00    -0.284 OA
ATOM     10  C   UNL A   1      36.157 -37.038 -28.641  0.00  0.00    +0.221 C 
BRANCH  10  11
ATOM     11  C   UNL A   1      37.524 -37.278 -29.060  0.00  0.00    +0.176 A 
ATOM     12  C   UNL A   1      38.513 -38.034 -28.456  0.00  0.00    -0.005 A 
ATOM     13  C   UNL A   1      39.653 -37.982 -29.297  0.00  0.00    +0.022 A 
ATOM     14  C   UNL A   1      40.951 -38.520 -29.264  0.00  0.00    -0.037 A 
ATOM     15  C   UNL A   1      41.813 -38.238 -30.331  0.00  0.00    +0.019 A 
ATOM     16 BR   UNL A   1      43.567 -38.950 -30.312  0.00  0.00    -0.050 Br
ATOM     17  C   UNL A   1      41.408 -37.447 -31.409  0.00  0.00    -0.044 A 
ATOM     18  C   UNL A   1      40.118 -36.905 -31.457  0.00  0.00    -0.018 A 
ATOM     19  C   UNL A   1      39.281 -37.198 -30.383  0.00  0.00    +0.136 A 
ATOM     20  O   UNL A   1      37.996 -36.771 -30.242  0.00  0.00    -0.452 OA
ENDBRANCH  10  11
ENDBRANCH   7  10
ENDBRANCH   1   8
BRANCH   5  21
ATOM     21  C   UNL A   1      30.409 -32.665 -29.523  0.00  0.00    +0.049 C 
BRANCH  21  22
ATOM     22  C   UNL A   1      29.608 -32.273 -30.743  0.00  0.00    -0.008 A 
ATOM     23  C   UNL A   1      29.420 -33.227 -31.763  0.00  0.00    -0.055 A 
ATOM     24  C   UNL A   1      28.698 -32.912 -32.915  0.00  0.00    -0.060 A 
ATOM     25  C   UNL A   1      28.151 -31.642 -33.069  0.00  0.00    -0.042 A 
ATOM     26  C   UNL A   1      28.320 -30.680 -32.073  0.00  0.00    +0.060 A 
ATOM     27 CL   UNL A   1      27.617 -29.126 -32.343  0.00  0.00    -0.082 Cl
ATOM     28  C   UNL A   1      29.045 -30.990 -30.908  0.00  0.00    +0.064 A 
ATOM     29 CL   UNL A   1      29.257 -29.788 -29.674  0.00  0.00    -0.082 Cl
ENDBRANCH  21  22
ENDBRANCH   5  21
TORSDOF 5
ENDMDL
MODEL 8
REMARK VINA RESULT:    -7.873      5.764      8.315
REMARK INTER + INTRA:         -10.952
REMARK INTER:                  -9.918
REMARK INTRA:                  -1.034
REMARK UNBOUND:                -0.778
REMARK  Name = cpd328.pdb
REMARK  5 active torsions:
REMARK  status: ('A' for Active; 'I' for Inactive)
REMARK    1  A    between atoms: C_2  and  C_3
REMARK    2  A    between atoms: C_2  and  C_20
REMARK    3  A    between atoms: C_4  and  C_5
REMARK    4  A    between atoms: N_9  and  C_10
REMARK    5  A    between atoms: C_10  and  C_11
REMARK                            x       y       z     vdW  Elec       q    Type
REMARK                         _______ _______ _______ _____ _____    ______ ____
ROOT
ATOM      1  C   UNL A   1      37.453 -35.712 -30.885  0.00  0.00    -0.009 A 
ATOM      2  C   UNL A   1      38.724 -35.676 -31.459  0.00  0.00    -0.052 A 
ATOM      3  C   UNL A   1      39.741 -36.473 -30.946  0.00  0.00    -0.045 A 
ATOM      4  C   UNL A   1      39.482 -37.289 -29.853  0.00  0.00    +0.005 A 
ATOM      5  N   UNL A   1      38.257 -37.301 -29.276  0.00  0.00    -0.348 N 
ATOM      6  C   UNL A   1      37.255 -36.535 -29.774  0.00  0.00    +0.012 A 
ENDROOT
BRANCH   1   8
ATOM      7  C   UNL A   1      36.028 -33.683 -30.865  0.00  0.00    -0.011 C 
ATOM      8  C   UNL A   1      36.341 -34.884 -31.375  0.00  0.00    -0.049 C 
BRANCH   7  10
ATOM      9  O   UNL A   1      35.203 -31.764 -31.870  0.00  0.00    -0.284 OA
ATOM     10  C   UNL A   1      34.892 -32.816 -31.312  0.00  0.00    +0.221 C 
BRANCH  10  11
ATOM     11  C   UNL A   1      33.513 -33.214 -31.110  0.00  0.00    +0.176 A 
ATOM     12  C   UNL A   1      32.615 -33.773 -32.002  0.00  0.00    -0.005 A 
ATOM     13  C   UNL A   1      31.414 -34.018 -31.291  0.00  0.00    +0.022 A 
ATOM     14  C   UNL A   1      30.154 -34.556 -31.603  0.00  0.00    -0.037 A 
ATOM     15  C   UNL A   1      29.199 -34.645 -30.581  0.00  0.00    +0.019 A 
ATOM     16 BR   UNL A   1      27.493 -35.366 -30.974  0.00  0.00    -0.050 Br
ATOM     17  C   UNL A   1      29.478 -34.217 -29.281  0.00  0.00    -0.044 A 
ATOM     18  C   UNL A   1      30.728 -33.679 -28.955  0.00  0.00    -0.018 A 
ATOM     19  C   UNL A   1      31.658 -33.600 -29.988  0.00  0.00    +0.136 A 
ATOM     20  O   UNL A   1      32.925 -33.113 -29.876  0.00  0.00    -0.452 OA
ENDBRANCH  10  11
ENDBRANCH   7  10
ENDBRANCH   1   8
BRANCH   5  21
ATOM     21  C   UNL A   1      38.004 -38.182 -28.105  0.00  0.00    +0.049 C 
BRANCH  21  22
ATOM     22  C   UNL A   1      36.879 -39.152 -28.381  0.00  0.00    -0.008 A 
ATOM     23  C   UNL A   1      37.153 -40.305 -29.144  0.00  0.00    -0.055 A 
ATOM     24  C   UNL A   1      36.147 -41.226 -29.438  0.00  0.00    -0.060 A 
ATOM     25  C   UNL A   1      34.852 -41.015 -28.976  0.00  0.00    -0.042 A 
ATOM     26  C   UNL A   1      34.554 -39.884 -28.215  0.00  0.00    +0.060 A 
ATOM     27 CL   UNL A   1      32.922 -39.691 -27.685  0.00  0.00    -0.082 Cl
ATOM     28  C   UNL A   1      35.562 -38.951 -27.914  0.00  0.00    +0.064 A 
ATOM     29 CL   UNL A   1      35.187 -37.542 -26.972  0.00  0.00    -0.082 Cl
ENDBRANCH  21  22
ENDBRANCH   5  21
TORSDOF 5
ENDMDL
MODEL 9
REMARK VINA RESULT:    -7.854     19.745     22.070
REMARK INTER + INTRA:         -10.927
REMARK INTER:                 -10.154
REMARK INTRA:                  -0.773
REMARK UNBOUND:                -0.778
REMARK  Name = cpd328.pdb
REMARK  5 active torsions:
REMARK  status: ('A' for Active; 'I' for Inactive)
REMARK    1  A    between atoms: C_2  and  C_3
REMARK    2  A    between atoms: C_2  and  C_20
REMARK    3  A    between atoms: C_4  and  C_5
REMARK    4  A    between atoms: N_9  and  C_10
REMARK    5  A    between atoms: C_10  and  C_11
REMARK                            x       y       z     vdW  Elec       q    Type
REMARK                         _______ _______ _______ _____ _____    ______ ____
ROOT
ATOM      1  C   UNL A   1      41.704 -21.735 -38.307  0.00  0.00    -0.009 A 
ATOM      2  C   UNL A   1      40.848 -22.444 -39.150  0.00  0.00    -0.052 A 
ATOM      3  C   UNL A   1      41.094 -22.483 -40.518  0.00  0.00    -0.045 A 
ATOM      4  C   UNL A   1      42.187 -21.799 -41.034  0.00  0.00    +0.005 A 
ATOM      5  N   UNL A   1      43.000 -21.084 -40.220  0.00  0.00    -0.348 N 
ATOM      6  C   UNL A   1      42.775 -21.048 -38.883  0.00  0.00    +0.012 A 
ENDROOT
BRANCH   1   8
ATOM      7  C   UNL A   1      40.654 -22.451 -36.178  0.00  0.00    -0.011 C 
ATOM      8  C   UNL A   1      41.489 -21.648 -36.855  0.00  0.00    -0.049 C 
BRANCH   7  10
ATOM      9  O   UNL A   1      40.742 -23.359 -34.047  0.00  0.00    -0.284 OA
ATOM     10  C   UNL A   1      40.383 -22.384 -34.707  0.00  0.00    +0.221 C 
BRANCH  10  11
ATOM     11  C   UNL A   1      39.753 -21.226 -34.107  0.00  0.00    +0.176 A 
ATOM     12  C   UNL A   1      40.326 -20.123 -33.498  0.00  0.00    -0.005 A 
ATOM     13  C   UNL A   1      39.271 -19.254 -33.125  0.00  0.00    +0.022 A 
ATOM     14  C   UNL A   1      39.178 -18.004 -32.489  0.00  0.00    -0.037 A 
ATOM     15  C   UNL A   1      37.905 -17.447 -32.306  0.00  0.00    +0.019 A 
ATOM     16 BR   UNL A   1      37.750 -15.764 -31.452  0.00  0.00    -0.050 Br
ATOM     17  C   UNL A   1      36.751 -18.102 -32.741  0.00  0.00    -0.044 A 
ATOM     18  C   UNL A   1      36.828 -19.347 -33.376  0.00  0.00    -0.018 A 
ATOM     19  C   UNL A   1      38.103 -19.880 -33.544  0.00  0.00    +0.136 A 
ATOM     20  O   UNL A   1      38.391 -21.072 -34.137  0.00  0.00    -0.452 OA
ENDBRANCH  10  11
ENDBRANCH   7  10
ENDBRANCH   1   8
BRANCH   5  21
ATOM     21  C   UNL A   1      44.163 -20.358 -40.795  0.00  0.00    +0.049 C 
BRANCH  21  22
ATOM     22  C   UNL A   1      45.438 -21.154 -40.639  0.00  0.00    -0.008 A 
ATOM     23  C   UNL A   1      46.190 -21.000 -39.456  0.00  0.00    -0.055 A 
ATOM     24  C   UNL A   1      47.380 -21.702 -39.266  0.00  0.00    -0.060 A 
ATOM     25  C   UNL A   1      47.842 -22.570 -40.250  0.00  0.00    -0.042 A 
ATOM     26  C   UNL A   1      47.116 -22.744 -41.429  0.00  0.00    +0.060 A 
ATOM     27 CL   UNL A   1      47.759 -23.834 -42.605  0.00  0.00    -0.082 Cl
ATOM     28  C   UNL A   1      45.914 -22.040 -41.628  0.00  0.00    +0.064 A 
ATOM     29 CL   UNL A   1      45.017 -22.255 -43.098  0.00  0.00    -0.082 Cl
ENDBRANCH  21  22
ENDBRANCH   5  21
TORSDOF 5
ENDMDL
MODEL 10
REMARK VINA RESULT:    -7.771     19.152     22.206
REMARK INTER + INTRA:         -10.821
REMARK INTER:                  -9.964
REMARK INTRA:                  -0.856
REMARK UNBOUND:                -0.778
REMARK  Name = cpd328.pdb
REMARK  5 active torsions:
REMARK  status: ('A' for Active; 'I' for Inactive)
REMARK    1  A    between atoms: C_2  and  C_3
REMARK    2  A    between atoms: C_2  and  C_20
REMARK    3  A    between atoms: C_4  and  C_5
REMARK    4  A    between atoms: N_9  and  C_10
REMARK    5  A    between atoms: C_10  and  C_11
REMARK                            x       y       z     vdW  Elec       q    Type
REMARK                         _______ _______ _______ _____ _____    ______ ____
ROOT
ATOM      1  C   UNL A   1      43.866 -20.861 -40.762  0.00  0.00    -0.009 A 
ATOM      2  C   UNL A   1      44.204 -20.342 -42.011  0.00  0.00    -0.052 A 
ATOM      3  C   UNL A   1      45.488 -19.857 -42.238  0.00  0.00    -0.045 A 
ATOM      4  C   UNL A   1      46.417 -19.881 -41.207  0.00  0.00    +0.005 A 
ATOM      5  N   UNL A   1      46.079 -20.355 -39.984  0.00  0.00    -0.348 N 
ATOM      6  C   UNL A   1      44.834 -20.841 -39.755  0.00  0.00    +0.012 A 
ENDROOT
BRANCH   1   8
ATOM      7  C   UNL A   1      42.242 -22.136 -39.388  0.00  0.00    -0.011 C 
ATOM      8  C   UNL A   1      42.523 -21.377 -40.459  0.00  0.00    -0.049 C 
BRANCH   7  10
ATOM      9  O   UNL A   1      40.442 -23.520 -39.853  0.00  0.00    -0.284 OA
ATOM     10  C   UNL A   1      40.899 -22.706 -39.051  0.00  0.00    +0.221 C 
BRANCH  10  11
ATOM     11  C   UNL A   1      40.200 -22.326 -37.840  0.00  0.00    +0.176 A 
ATOM     12  C   UNL A   1      39.405 -21.222 -37.587  0.00  0.00    -0.005 A 
ATOM     13  C   UNL A   1      38.920 -21.350 -36.262  0.00  0.00    +0.022 A 
ATOM     14  C   UNL A   1      38.088 -20.591 -35.420  0.00  0.00    -0.037 A 
ATOM     15  C   UNL A   1      37.826 -21.079 -34.133  0.00  0.00    +0.019 A 
ATOM     16 BR   UNL A   1      36.708 -20.078 -32.978  0.00  0.00    -0.050 Br
ATOM     17  C   UNL A   1      38.368 -22.285 -33.684  0.00  0.00    -0.044 A 
ATOM     18  C   UNL A   1      39.198 -23.051 -34.510  0.00  0.00    -0.018 A 
ATOM     19  C   UNL A   1      39.444 -22.545 -35.784  0.00  0.00    +0.136 A 
ATOM     20  O   UNL A   1      40.218 -23.137 -36.735  0.00  0.00    -0.452 OA
ENDBRANCH  10  11
ENDBRANCH   7  10
ENDBRANCH   1   8
BRANCH   5  21
ATOM     21  C   UNL A   1      47.092 -20.369 -38.895  0.00  0.00    +0.049 C 
BRANCH  21  22
ATOM     22  C   UNL A   1      46.628 -19.562 -37.705  0.00  0.00    -0.008 A 
ATOM     23  C   UNL A   1      46.159 -20.246 -36.565  0.00  0.00    -0.055 A 
ATOM     24  C   UNL A   1      45.708 -19.548 -35.444  0.00  0.00    -0.060 A 
ATOM     25  C   UNL A   1      45.719 -18.157 -35.439  0.00  0.00    -0.042 A 
ATOM     26  C   UNL A   1      46.181 -17.454 -36.552  0.00  0.00    +0.060 A 
ATOM     27 CL   UNL A   1      46.155 -15.730 -36.470  0.00  0.00    -0.082 Cl
ATOM     28  C   UNL A   1      46.638 -18.151 -37.686  0.00  0.00    +0.064 A 
ATOM     29 CL   UNL A   1      47.208 -17.273 -39.071  0.00  0.00    -0.082 Cl
ENDBRANCH  21  22
ENDBRANCH   5  21
TORSDOF 5
ENDMDL
MODEL 11
REMARK VINA RESULT:    -7.659     23.849     26.471
REMARK INTER + INTRA:         -10.676
REMARK INTER:                  -9.869
REMARK INTRA:                  -0.807
REMARK UNBOUND:                -0.778
REMARK  Name = cpd328.pdb
REMARK  5 active torsions:
REMARK  status: ('A' for Active; 'I' for Inactive)
REMARK    1  A    between atoms: C_2  and  C_3
REMARK    2  A    between atoms: C_2  and  C_20
REMARK    3  A    between atoms: C_4  and  C_5
REMARK    4  A    between atoms: N_9  and  C_10
REMARK    5  A    between atoms: C_10  and  C_11
REMARK                            x       y       z     vdW  Elec       q    Type
REMARK                         _______ _______ _______ _____ _____    ______ ____
ROOT
ATOM      1  C   UNL A   1      53.413 -31.848 -52.905  0.00  0.00    -0.009 A 
ATOM      2  C   UNL A   1      54.305 -30.939 -53.473  0.00  0.00    -0.052 A 
ATOM      3  C   UNL A   1      55.656 -31.255 -53.562  0.00  0.00    -0.045 A 
ATOM      4  C   UNL A   1      56.106 -32.471 -53.067  0.00  0.00    +0.005 A 
ATOM      5  N   UNL A   1      55.245 -33.340 -52.486  0.00  0.00    -0.348 N 
ATOM      6  C   UNL A   1      53.924 -33.048 -52.403  0.00  0.00    +0.012 A 
ENDROOT
BRANCH   1   8
ATOM      7  C   UNL A   1      51.124 -31.542 -53.809  0.00  0.00    -0.011 C 
ATOM      8  C   UNL A   1      51.975 -31.567 -52.772  0.00  0.00    -0.049 C 
BRANCH   7  10
ATOM      9  O   UNL A   1      49.365 -30.048 -53.596  0.00  0.00    -0.284 OA
ATOM     10  C   UNL A   1      49.661 -31.235 -53.728  0.00  0.00    +0.221 C 
BRANCH  10  11
ATOM     11  C   UNL A   1      48.664 -32.282 -53.822  0.00  0.00    +0.176 A 
ATOM     12  C   UNL A   1      48.380 -33.141 -54.869  0.00  0.00    -0.005 A 
ATOM     13  C   UNL A   1      47.347 -34.008 -54.432  0.00  0.00    +0.022 A 
ATOM     14  C   UNL A   1      46.627 -35.076 -54.995  0.00  0.00    -0.037 A 
ATOM     15  C   UNL A   1      45.658 -35.710 -54.207  0.00  0.00    +0.019 A 
ATOM     16 BR   UNL A   1      44.673 -37.152 -54.940  0.00  0.00    -0.050 Br
ATOM     17  C   UNL A   1      45.403 -35.305 -52.895  0.00  0.00    -0.044 A 
ATOM     18  C   UNL A   1      46.111 -34.244 -52.320  0.00  0.00    -0.018 A 
ATOM     19  C   UNL A   1      47.068 -33.629 -53.124  0.00  0.00    +0.136 A 
ATOM     20  O   UNL A   1      47.861 -32.586 -52.753  0.00  0.00    -0.452 OA
ENDBRANCH  10  11
ENDBRANCH   7  10
ENDBRANCH   1   8
BRANCH   5  21
ATOM     21  C   UNL A   1      55.751 -34.636 -51.962  0.00  0.00    +0.049 C 
BRANCH  21  22
ATOM     22  C   UNL A   1      55.719 -34.667 -50.451  0.00  0.00    -0.008 A 
ATOM     23  C   UNL A   1      56.515 -33.746 -49.740  0.00  0.00    -0.055 A 
ATOM     24  C   UNL A   1      56.531 -33.740 -48.345  0.00  0.00    -0.060 A 
ATOM     25  C   UNL A   1      55.754 -34.650 -47.635  0.00  0.00    -0.042 A 
ATOM     26  C   UNL A   1      54.954 -35.570 -48.314  0.00  0.00    +0.060 A 
ATOM     27 CL   UNL A   1      54.025 -36.670 -47.361  0.00  0.00    -0.082 Cl
ATOM     28  C   UNL A   1      54.932 -35.582 -49.720  0.00  0.00    +0.064 A 
ATOM     29 CL   UNL A   1      53.940 -36.731 -50.561  0.00  0.00    -0.082 Cl
ENDBRANCH  21  22
ENDBRANCH   5  21
TORSDOF 5
ENDMDL
MODEL 12
REMARK VINA RESULT:    -7.514      8.562     10.954
REMARK INTER + INTRA:         -10.489
REMARK INTER:                  -9.750
REMARK INTRA:                  -0.739
REMARK UNBOUND:                -0.778
REMARK  Name = cpd328.pdb
REMARK  5 active torsions:
REMARK  status: ('A' for Active; 'I' for Inactive)
REMARK    1  A    between atoms: C_2  and  C_3
REMARK    2  A    between atoms: C_2  and  C_20
REMARK    3  A    between atoms: C_4  and  C_5
REMARK    4  A    between atoms: N_9  and  C_10
REMARK    5  A    between atoms: C_10  and  C_11
REMARK                            x       y       z     vdW  Elec       q    Type
REMARK                         _______ _______ _______ _____ _____    ______ ____
ROOT
ATOM      1  C   UNL A   1      32.618 -33.507 -29.897  0.00  0.00    -0.009 A 
ATOM      2  C   UNL A   1      31.845 -33.961 -30.965  0.00  0.00    -0.052 A 
ATOM      3  C   UNL A   1      30.761 -33.210 -31.406  0.00  0.00    -0.045 A 
ATOM      4  C   UNL A   1      30.450 -32.019 -30.765  0.00  0.00    +0.005 A 
ATOM      5  N   UNL A   1      31.181 -31.594 -29.707  0.00  0.00    -0.348 N 
ATOM      6  C   UNL A   1      32.247 -32.312 -29.275  0.00  0.00    +0.012 A 
ENDROOT
BRANCH   1   8
ATOM      7  C   UNL A   1      33.911 -35.588 -29.516  0.00  0.00    -0.011 C 
ATOM      8  C   UNL A   1      33.769 -34.261 -29.378  0.00  0.00    -0.049 C 
BRANCH   7  10
ATOM      9  O   UNL A   1      34.810 -37.072 -27.979  0.00  0.00    -0.284 OA
ATOM     10  C   UNL A   1      35.049 -36.403 -28.984  0.00  0.00    +0.221 C 
BRANCH  10  11
ATOM     11  C   UNL A   1      36.343 -36.409 -29.636  0.00  0.00    +0.176 A 
ATOM     12  C   UNL A   1      37.540 -36.963 -29.218  0.00  0.00    -0.005 A 
ATOM     13  C   UNL A   1      38.490 -36.733 -30.244  0.00  0.00    +0.022 A 
ATOM     14  C   UNL A   1      39.849 -37.032 -30.440  0.00  0.00    -0.037 A 
ATOM     15  C   UNL A   1      40.450 -36.630 -31.641  0.00  0.00    +0.019 A 
ATOM     16 BR   UNL A   1      42.280 -37.020 -31.931  0.00  0.00    -0.050 Br
ATOM     17  C   UNL A   1      39.731 -35.951 -32.627  0.00  0.00    -0.044 A 
ATOM     18  C   UNL A   1      38.377 -35.645 -32.446  0.00  0.00    -0.018 A 
ATOM     19  C   UNL A   1      37.804 -36.054 -31.245  0.00  0.00    +0.136 A 
ATOM     20  O   UNL A   1      36.507 -35.857 -30.879  0.00  0.00    -0.452 OA
ENDBRANCH  10  11
ENDBRANCH   7  10
ENDBRANCH   1   8
BRANCH   5  21
ATOM     21  C   UNL A   1      30.828 -30.315 -29.035  0.00  0.00    +0.049 C 
BRANCH  21  22
ATOM     22  C   UNL A   1      29.362 -30.274 -28.669  0.00  0.00    -0.008 A 
ATOM     23  C   UNL A   1      28.909 -31.080 -27.605  0.00  0.00    -0.055 A 
ATOM     24  C   UNL A   1      27.564 -31.088 -27.234  0.00  0.00    -0.060 A 
ATOM     25  C   UNL A   1      26.648 -30.294 -27.917  0.00  0.00    -0.042 A 
ATOM     26  C   UNL A   1      27.070 -29.484 -28.971  0.00  0.00    +0.060 A 
ATOM     27 CL   UNL A   1      25.872 -28.533 -29.772  0.00  0.00    -0.082 Cl
ATOM     28  C   UNL A   1      28.425 -29.469 -29.351  0.00  0.00    +0.064 A 
ATOM     29 CL   UNL A   1      28.946 -28.465 -30.667  0.00  0.00    -0.082 Cl
ENDBRANCH  21  22
ENDBRANCH   5  21
TORSDOF 5
ENDMDL
MODEL 13
REMARK VINA RESULT:    -7.451     19.821     23.262
REMARK INTER + INTRA:         -10.407
REMARK INTER:                  -9.925
REMARK INTRA:                  -0.482
REMARK UNBOUND:                -0.778
REMARK  Name = cpd328.pdb
REMARK  5 active torsions:
REMARK  status: ('A' for Active; 'I' for Inactive)
REMARK    1  A    between atoms: C_2  and  C_3
REMARK    2  A    between atoms: C_2  and  C_20
REMARK    3  A    between atoms: C_4  and  C_5
REMARK    4  A    between atoms: N_9  and  C_10
REMARK    5  A    between atoms: C_10  and  C_11
REMARK                            x       y       z     vdW  Elec       q    Type
REMARK                         _______ _______ _______ _____ _____    ______ ____
ROOT
ATOM      1  C   UNL A   1      45.504 -17.785 -37.396  0.00  0.00    -0.009 A 
ATOM      2  C   UNL A   1      46.471 -16.825 -37.693  0.00  0.00    -0.052 A 
ATOM      3  C   UNL A   1      47.042 -16.783 -38.960  0.00  0.00    -0.045 A 
ATOM      4  C   UNL A   1      46.652 -17.713 -39.915  0.00  0.00    +0.005 A 
ATOM      5  N   UNL A   1      45.737 -18.665 -39.616  0.00  0.00    -0.348 N 
ATOM      6  C   UNL A   1      45.165 -18.709 -38.388  0.00  0.00    +0.012 A 
ENDROOT
BRANCH   1   8
ATOM      7  C   UNL A   1      45.130 -18.873 -35.199  0.00  0.00    -0.011 C 
ATOM      8  C   UNL A   1      44.873 -17.887 -36.072  0.00  0.00    -0.049 C 
BRANCH   7  10
ATOM      9  O   UNL A   1      45.158 -18.642 -32.893  0.00  0.00    -0.284 OA
ATOM     10  C   UNL A   1      44.494 -19.034 -33.853  0.00  0.00    +0.221 C 
BRANCH  10  11
ATOM     11  C   UNL A   1      43.168 -19.600 -33.706  0.00  0.00    +0.176 A 
ATOM     12  C   UNL A   1      42.129 -19.213 -32.878  0.00  0.00    -0.005 A 
ATOM     13  C   UNL A   1      41.032 -20.065 -33.157  0.00  0.00    +0.022 A 
ATOM     14  C   UNL A   1      39.716 -20.197 -32.679  0.00  0.00    -0.037 A 
ATOM     15  C   UNL A   1      38.904 -21.192 -33.239  0.00  0.00    +0.019 A 
ATOM     16 BR   UNL A   1      37.128 -21.392 -32.614  0.00  0.00    -0.050 Br
ATOM     17  C   UNL A   1      39.374 -22.038 -34.247  0.00  0.00    -0.044 A 
ATOM     18  C   UNL A   1      40.681 -21.918 -34.733  0.00  0.00    -0.018 A 
ATOM     19  C   UNL A   1      41.468 -20.923 -34.159  0.00  0.00    +0.136 A 
ATOM     20  O   UNL A   1      42.759 -20.645 -34.492  0.00  0.00    -0.452 OA
ENDBRANCH  10  11
ENDBRANCH   7  10
ENDBRANCH   1   8
BRANCH   5  21
ATOM     21  C   UNL A   1      45.337 -19.652 -40.655  0.00  0.00    +0.049 C 
BRANCH  21  22
ATOM     22  C   UNL A   1      46.264 -20.844 -40.666  0.00  0.00    -0.008 A 
ATOM     23  C   UNL A   1      47.235 -20.954 -39.649  0.00  0.00    -0.055 A 
ATOM     24  C   UNL A   1      48.123 -22.030 -39.620  0.00  0.00    -0.060 A 
ATOM     25  C   UNL A   1      48.059 -23.014 -40.601  0.00  0.00    -0.042 A 
ATOM     26  C   UNL A   1      47.106 -22.931 -41.617  0.00  0.00    +0.060 A 
ATOM     27 CL   UNL A   1      47.096 -24.188 -42.801  0.00  0.00    -0.082 Cl
ATOM     28  C   UNL A   1      46.206 -21.851 -41.653  0.00  0.00    +0.064 A 
ATOM     29 CL   UNL A   1      45.025 -21.749 -42.921  0.00  0.00    -0.082 Cl
ENDBRANCH  21  22
ENDBRANCH   5  21
TORSDOF 5
ENDMDL
MODEL 14
REMARK VINA RESULT:    -7.445      1.879      2.322
REMARK INTER + INTRA:         -10.400
REMARK INTER:                  -9.582
REMARK INTRA:                  -0.817
REMARK UNBOUND:                -0.778
REMARK  Name = cpd328.pdb
REMARK  5 active torsions:
REMARK  status: ('A' for Active; 'I' for Inactive)
REMARK    1  A    between atoms: C_2  and  C_3
REMARK    2  A    between atoms: C_2  and  C_20
REMARK    3  A    between atoms: C_4  and  C_5
REMARK    4  A    between atoms: N_9  and  C_10
REMARK    5  A    between atoms: C_10  and  C_11
REMARK                            x       y       z     vdW  Elec       q    Type
REMARK                         _______ _______ _______ _____ _____    ______ ____
ROOT
ATOM      1  C   UNL A   1      35.135 -39.899 -31.270  0.00  0.00    -0.009 A 
ATOM      2  C   UNL A   1      35.349 -41.090 -30.576  0.00  0.00    -0.052 A 
ATOM      3  C   UNL A   1      36.160 -41.099 -29.447  0.00  0.00    -0.045 A 
ATOM      4  C   UNL A   1      36.763 -39.920 -29.030  0.00  0.00    +0.005 A 
ATOM      5  N   UNL A   1      36.581 -38.771 -29.722  0.00  0.00    -0.348 N 
ATOM      6  C   UNL A   1      35.784 -38.747 -30.819  0.00  0.00    +0.012 A 
ENDROOT
BRANCH   1   8
ATOM      7  C   UNL A   1      33.318 -38.928 -32.650  0.00  0.00    -0.011 C 
ATOM      8  C   UNL A   1      34.298 -39.828 -32.477  0.00  0.00    -0.049 C 
BRANCH   7  10
ATOM      9  O   UNL A   1      31.922 -37.729 -34.060  0.00  0.00    -0.284 OA
ATOM     10  C   UNL A   1      32.423 -38.833 -33.847  0.00  0.00    +0.221 C 
BRANCH  10  11
ATOM     11  C   UNL A   1      32.187 -39.975 -34.706  0.00  0.00    +0.176 A 
ATOM     12  C   UNL A   1      31.096 -40.825 -34.766  0.00  0.00    -0.005 A 
ATOM     13  C   UNL A   1      31.342 -41.749 -35.813  0.00  0.00    +0.022 A 
ATOM     14  C   UNL A   1      30.651 -42.837 -36.375  0.00  0.00    -0.037 A 
ATOM     15  C   UNL A   1      31.244 -43.516 -37.447  0.00  0.00    +0.019 A 
ATOM     16 BR   UNL A   1      30.336 -44.985 -38.224  0.00  0.00    -0.050 Br
ATOM     17  C   UNL A   1      32.487 -43.133 -37.958  0.00  0.00    -0.044 A 
ATOM     18  C   UNL A   1      33.187 -42.052 -37.408  0.00  0.00    -0.018 A 
ATOM     19  C   UNL A   1      32.577 -41.395 -36.343  0.00  0.00    +0.136 A 
ATOM     20  O   UNL A   1      33.090 -40.325 -35.676  0.00  0.00    -0.452 OA
ENDBRANCH  10  11
ENDBRANCH   7  10
ENDBRANCH   1   8
BRANCH   5  21
ATOM     21  C   UNL A   1      37.238 -37.520 -29.258  0.00  0.00    +0.049 C 
BRANCH  21  22
ATOM     22  C   UNL A   1      38.648 -37.411 -29.791  0.00  0.00    -0.008 A 
ATOM     23  C   UNL A   1      39.688 -38.053 -29.088  0.00  0.00    -0.055 A 
ATOM     24  C   UNL A   1      41.008 -37.973 -29.532  0.00  0.00    -0.060 A 
ATOM     25  C   UNL A   1      41.315 -37.254 -30.682  0.00  0.00    -0.042 A 
ATOM     26  C   UNL A   1      40.305 -36.612 -31.399  0.00  0.00    +0.060 A 
ATOM     27 CL   UNL A   1      40.768 -35.734 -32.812  0.00  0.00    -0.082 Cl
ATOM     28  C   UNL A   1      38.971 -36.688 -30.959  0.00  0.00    +0.064 A 
ATOM     29 CL   UNL A   1      37.717 -35.884 -31.850  0.00  0.00    -0.082 Cl
ENDBRANCH  21  22
ENDBRANCH   5  21
TORSDOF 5
ENDMDL
MODEL 15
REMARK VINA RESULT:    -7.425      7.959     10.659
REMARK INTER + INTRA:         -10.373
REMARK INTER:                  -9.611
REMARK INTRA:                  -0.762
REMARK UNBOUND:                -0.778
REMARK  Name = cpd328.pdb
REMARK  5 active torsions:
REMARK  status: ('A' for Active; 'I' for Inactive)
REMARK    1  A    between atoms: C_2  and  C_3
REMARK    2  A    between atoms: C_2  and  C_20
REMARK    3  A    between atoms: C_4  and  C_5
REMARK    4  A    between atoms: N_9  and  C_10
REMARK    5  A    between atoms: C_10  and  C_11
REMARK                            x       y       z     vdW  Elec       q    Type
REMARK                         _______ _______ _______ _____ _____    ______ ____
ROOT
ATOM      1  C   UNL A   1      32.818 -33.358 -30.477  0.00  0.00    -0.009 A 
ATOM      2  C   UNL A   1      33.581 -32.190 -30.456  0.00  0.00    -0.052 A 
ATOM      3  C   UNL A   1      32.953 -30.951 -30.399  0.00  0.00    -0.045 A 
ATOM      4  C   UNL A   1      31.566 -30.889 -30.378  0.00  0.00    +0.005 A 
ATOM      5  N   UNL A   1      30.825 -32.021 -30.431  0.00  0.00    -0.348 N 
ATOM      6  C   UNL A   1      31.426 -33.236 -30.476  0.00  0.00    +0.012 A 
ENDROOT
BRANCH   1   8
ATOM      7  C   UNL A   1      34.206 -35.210 -29.589  0.00  0.00    -0.011 C 
ATOM      8  C   UNL A   1      33.424 -34.696 -30.550  0.00  0.00    -0.049 C 
BRANCH   7  10
ATOM      9  O   UNL A   1      34.129 -37.522 -29.439  0.00  0.00    -0.284 OA
ATOM     10  C   UNL A   1      34.865 -36.554 -29.628  0.00  0.00    +0.221 C 
BRANCH  10  11
ATOM     11  C   UNL A   1      36.283 -36.693 -29.895  0.00  0.00    +0.176 A 
ATOM     12  C   UNL A   1      37.065 -36.078 -30.857  0.00  0.00    -0.005 A 
ATOM     13  C   UNL A   1      38.397 -36.521 -30.659  0.00  0.00    +0.022 A 
ATOM     14  C   UNL A   1      39.637 -36.281 -31.277  0.00  0.00    -0.037 A 
ATOM     15  C   UNL A   1      40.770 -36.923 -30.760  0.00  0.00    +0.019 A 
ATOM     16 BR   UNL A   1      42.453 -36.618 -31.572  0.00  0.00    -0.050 Br
ATOM     17  C   UNL A   1      40.687 -37.780 -29.659  0.00  0.00    -0.044 A 
ATOM     18  C   UNL A   1      39.459 -38.028 -29.034  0.00  0.00    -0.018 A 
ATOM     19  C   UNL A   1      38.349 -37.379 -29.568  0.00  0.00    +0.136 A 
ATOM     20  O   UNL A   1      37.072 -37.486 -29.104  0.00  0.00    -0.452 OA
ENDBRANCH  10  11
ENDBRANCH   7  10
ENDBRANCH   1   8
BRANCH   5  21
ATOM     21  C   UNL A   1      29.340 -31.930 -30.409  0.00  0.00    +0.049 C 
BRANCH  21  22
ATOM     22  C   UNL A   1      28.775 -31.850 -31.808  0.00  0.00    -0.008 A 
ATOM     23  C   UNL A   1      28.503 -33.050 -32.496  0.00  0.00    -0.055 A 
ATOM     24  C   UNL A   1      27.992 -33.032 -33.794  0.00  0.00    -0.060 A 
ATOM     25  C   UNL A   1      27.742 -31.819 -34.428  0.00  0.00    -0.042 A 
ATOM     26  C   UNL A   1      27.999 -30.617 -33.768  0.00  0.00    +0.060 A 
ATOM     27 CL   UNL A   1      27.668 -29.155 -34.626  0.00  0.00    -0.082 Cl
ATOM     28  C   UNL A   1      28.514 -30.626 -32.459  0.00  0.00    +0.064 A 
ATOM     29 CL   UNL A   1      28.837 -29.129 -31.644  0.00  0.00    -0.082 Cl
ENDBRANCH  21  22
ENDBRANCH   5  21
TORSDOF 5
ENDMDL
MODEL 16
REMARK VINA RESULT:    -7.375     19.695     22.318
REMARK INTER + INTRA:         -10.308
REMARK INTER:                  -9.475
REMARK INTRA:                  -0.833
REMARK UNBOUND:                -0.778
REMARK  Name = cpd328.pdb
REMARK  5 active torsions:
REMARK  status: ('A' for Active; 'I' for Inactive)
REMARK    1  A    between atoms: C_2  and  C_3
REMARK    2  A    between atoms: C_2  and  C_20
REMARK    3  A    between atoms: C_4  and  C_5
REMARK    4  A    between atoms: N_9  and  C_10
REMARK    5  A    between atoms: C_10  and  C_11
REMARK                            x       y       z     vdW  Elec       q    Type
REMARK                         _______ _______ _______ _____ _____    ______ ____
ROOT
ATOM      1  C   UNL A   1      44.434 -19.596 -35.689  0.00  0.00    -0.009 A 
ATOM      2  C   UNL A   1      45.191 -19.097 -34.630  0.00  0.00    -0.052 A 
ATOM      3  C   UNL A   1      46.329 -18.340 -34.885  0.00  0.00    -0.045 A 
ATOM      4  C   UNL A   1      46.708 -18.101 -36.199  0.00  0.00    +0.005 A 
ATOM      5  N   UNL A   1      45.990 -18.612 -37.228  0.00  0.00    -0.348 N 
ATOM      6  C   UNL A   1      44.873 -19.343 -36.991  0.00  0.00    +0.012 A 
ENDROOT
BRANCH   1   8
ATOM      7  C   UNL A   1      42.591 -21.060 -36.469  0.00  0.00    -0.011 C 
ATOM      8  C   UNL A   1      43.228 -20.412 -35.482  0.00  0.00    -0.049 C 
BRANCH   7  10
ATOM      9  O   UNL A   1      41.364 -22.991 -36.844  0.00  0.00    -0.284 OA
ATOM     10  C   UNL A   1      41.348 -21.881 -36.313  0.00  0.00    +0.221 C 
BRANCH  10  11
ATOM     11  C   UNL A   1      40.210 -21.392 -35.561  0.00  0.00    +0.176 A 
ATOM     12  C   UNL A   1      39.522 -20.197 -35.677  0.00  0.00    -0.005 A 
ATOM     13  C   UNL A   1      38.459 -20.233 -34.740  0.00  0.00    +0.022 A 
ATOM     14  C   UNL A   1      37.422 -19.362 -34.365  0.00  0.00    -0.037 A 
ATOM     15  C   UNL A   1      36.531 -19.782 -33.368  0.00  0.00    +0.019 A 
ATOM     16 BR   UNL A   1      35.124 -18.628 -32.843  0.00  0.00    -0.050 Br
ATOM     17  C   UNL A   1      36.655 -21.031 -32.756  0.00  0.00    -0.044 A 
ATOM     18  C   UNL A   1      37.683 -21.910 -33.119  0.00  0.00    -0.018 A 
ATOM     19  C   UNL A   1      38.555 -21.468 -34.110  0.00  0.00    +0.136 A 
ATOM     20  O   UNL A   1      39.613 -22.170 -34.604  0.00  0.00    -0.452 OA
ENDBRANCH  10  11
ENDBRANCH   7  10
ENDBRANCH   1   8
BRANCH   5  21
ATOM     21  C   UNL A   1      46.417 -18.344 -38.627  0.00  0.00    +0.049 C 
BRANCH  21  22
ATOM     22  C   UNL A   1      46.409 -19.608 -39.455  0.00  0.00    -0.008 A 
ATOM     23  C   UNL A   1      47.152 -20.717 -39.000  0.00  0.00    -0.055 A 
ATOM     24  C   UNL A   1      47.188 -21.904 -39.733  0.00  0.00    -0.060 A 
ATOM     25  C   UNL A   1      46.485 -22.007 -40.929  0.00  0.00    -0.042 A 
ATOM     26  C   UNL A   1      45.739 -20.926 -41.399  0.00  0.00    +0.060 A 
ATOM     27 CL   UNL A   1      44.900 -21.131 -42.895  0.00  0.00    -0.082 Cl
ATOM     28  C   UNL A   1      45.697 -19.726 -40.667  0.00  0.00    +0.064 A 
ATOM     29 CL   UNL A   1      44.772 -18.381 -41.258  0.00  0.00    -0.082 Cl
ENDBRANCH  21  22
ENDBRANCH   5  21
TORSDOF 5
ENDMDL
MODEL 17
REMARK VINA RESULT:    -7.239     20.936     22.619
REMARK INTER + INTRA:         -10.132
REMARK INTER:                  -9.384
REMARK INTRA:                  -0.749
REMARK UNBOUND:                -0.778
REMARK  Name = cpd328.pdb
REMARK  5 active torsions:
REMARK  status: ('A' for Active; 'I' for Inactive)
REMARK    1  A    between atoms: C_2  and  C_3
REMARK    2  A    between atoms: C_2  and  C_20
REMARK    3  A    between atoms: C_4  and  C_5
REMARK    4  A    between atoms: N_9  and  C_10
REMARK    5  A    between atoms: C_10  and  C_11
REMARK                            x       y       z     vdW  Elec       q    Type
REMARK                         _______ _______ _______ _____ _____    ______ ____
ROOT
ATOM      1  C   UNL A   1      42.089 -20.561 -38.255  0.00  0.00    -0.009 A 
ATOM      2  C   UNL A   1      41.185 -21.496 -38.761  0.00  0.00    -0.052 A 
ATOM      3  C   UNL A   1      41.324 -21.962 -40.064  0.00  0.00    -0.045 A 
ATOM      4  C   UNL A   1      42.357 -21.478 -40.855  0.00  0.00    +0.005 A 
ATOM      5  N   UNL A   1      43.215 -20.547 -40.374  0.00  0.00    -0.348 N 
ATOM      6  C   UNL A   1      43.096 -20.093 -39.102  0.00  0.00    +0.012 A 
ENDROOT
BRANCH   1   8
ATOM      7  C   UNL A   1      42.057 -20.780 -35.785  0.00  0.00    -0.011 C 
ATOM      8  C   UNL A   1      41.987 -20.023 -36.891  0.00  0.00    -0.049 C 
BRANCH   7  10
ATOM      9  O   UNL A   1      42.952 -20.350 -33.691  0.00  0.00    -0.284 OA
ATOM     10  C   UNL A   1      41.933 -20.283 -34.378  0.00  0.00    +0.221 C 
BRANCH  10  11
ATOM     11  C   UNL A   1      40.687 -19.740 -33.876  0.00  0.00    +0.176 A 
ATOM     12  C   UNL A   1      40.414 -18.486 -33.360  0.00  0.00    -0.005 A 
ATOM     13  C   UNL A   1      39.030 -18.448 -33.060  0.00  0.00    +0.022 A 
ATOM     14  C   UNL A   1      38.143 -17.495 -32.528  0.00  0.00    -0.037 A 
ATOM     15  C   UNL A   1      36.794 -17.848 -32.393  0.00  0.00    +0.019 A 
ATOM     16 BR   UNL A   1      35.578 -16.585 -31.680  0.00  0.00    -0.050 Br
ATOM     17  C   UNL A   1      36.326 -19.108 -32.774  0.00  0.00    -0.044 A 
ATOM     18  C   UNL A   1      37.197 -20.067 -33.305  0.00  0.00    -0.018 A 
ATOM     19  C   UNL A   1      38.532 -19.693 -33.427  0.00  0.00    +0.136 A 
ATOM     20  O   UNL A   1      39.532 -20.476 -33.920  0.00  0.00    -0.452 OA
ENDBRANCH  10  11
ENDBRANCH   7  10
ENDBRANCH   1   8
BRANCH   5  21
ATOM     21  C   UNL A   1      44.314 -20.042 -41.241  0.00  0.00    +0.049 C 
BRANCH  21  22
ATOM     22  C   UNL A   1      45.354 -21.111 -41.487  0.00  0.00    -0.008 A 
ATOM     23  C   UNL A   1      45.215 -21.940 -42.618  0.00  0.00    -0.055 A 
ATOM     24  C   UNL A   1      46.141 -22.949 -42.884  0.00  0.00    -0.060 A 
ATOM     25  C   UNL A   1      47.221 -23.148 -42.029  0.00  0.00    -0.042 A 
ATOM     26  C   UNL A   1      47.384 -22.339 -40.905  0.00  0.00    +0.060 A 
ATOM     27 CL   UNL A   1      48.745 -22.654 -39.890  0.00  0.00    -0.082 Cl
ATOM     28  C   UNL A   1      46.455 -21.319 -40.629  0.00  0.00    +0.064 A 
ATOM     29 CL   UNL A   1      46.658 -20.318 -39.226  0.00  0.00    -0.082 Cl
ENDBRANCH  21  22
ENDBRANCH   5  21
TORSDOF 5
ENDMDL
MODEL 18
REMARK VINA RESULT:    -7.217     19.363     22.135
REMARK INTER + INTRA:         -10.104
REMARK INTER:                  -9.305
REMARK INTRA:                  -0.799
REMARK UNBOUND:                -0.778
REMARK  Name = cpd328.pdb
REMARK  5 active torsions:
REMARK  status: ('A' for Active; 'I' for Inactive)
REMARK    1  A    between atoms: C_2  and  C_3
REMARK    2  A    between atoms: C_2  and  C_20
REMARK    3  A    between atoms: C_4  and  C_5
REMARK    4  A    between atoms: N_9  and  C_10
REMARK    5  A    between atoms: C_10  and  C_11
REMARK                            x       y       z     vdW  Elec       q    Type
REMARK                         _______ _______ _______ _____ _____    ______ ____
ROOT
ATOM      1  C   UNL A   1      40.927 -21.359 -36.483  0.00  0.00    -0.009 A 
ATOM      2  C   UNL A   1      40.188 -22.427 -36.991  0.00  0.00    -0.052 A 
ATOM      3  C   UNL A   1      39.260 -23.075 -36.183  0.00  0.00    -0.045 A 
ATOM      4  C   UNL A   1      39.091 -22.660 -34.869  0.00  0.00    +0.005 A 
ATOM      5  N   UNL A   1      39.832 -21.643 -34.367  0.00  0.00    -0.348 N 
ATOM      6  C   UNL A   1      40.732 -20.997 -35.148  0.00  0.00    +0.012 A 
ENDROOT
BRANCH   1   8
ATOM      7  C   UNL A   1      41.640 -19.963 -38.405  0.00  0.00    -0.011 C 
ATOM      8  C   UNL A   1      41.931 -20.642 -37.284  0.00  0.00    -0.049 C 
BRANCH   7  10
ATOM      9  O   UNL A   1      42.342 -18.080 -39.560  0.00  0.00    -0.284 OA
ATOM     10  C   UNL A   1      42.628 -19.240 -39.267  0.00  0.00    +0.221 C 
BRANCH  10  11
ATOM     11  C   UNL A   1      43.855 -19.875 -39.705  0.00  0.00    +0.176 A 
ATOM     12  C   UNL A   1      45.118 -19.841 -39.142  0.00  0.00    -0.005 A 
ATOM     13  C   UNL A   1      45.953 -20.670 -39.933  0.00  0.00    +0.022 A 
ATOM     14  C   UNL A   1      47.304 -21.055 -39.903  0.00  0.00    -0.037 A 
ATOM     15  C   UNL A   1      47.765 -21.934 -40.892  0.00  0.00    +0.019 A 
ATOM     16 BR   UNL A   1      49.582 -22.468 -40.875  0.00  0.00    -0.050 Br
ATOM     17  C   UNL A   1      46.916 -22.426 -41.886  0.00  0.00    -0.044 A 
ATOM     18  C   UNL A   1      45.568 -22.052 -41.928  0.00  0.00    -0.018 A 
ATOM     19  C   UNL A   1      45.135 -21.177 -40.936  0.00  0.00    +0.136 A 
ATOM     20  O   UNL A   1      43.868 -20.697 -40.802  0.00  0.00    -0.452 OA
ENDBRANCH  10  11
ENDBRANCH   7  10
ENDBRANCH   1   8
BRANCH   5  21
ATOM     21  C   UNL A   1      39.634 -21.217 -32.956  0.00  0.00    +0.049 C 
BRANCH  21  22
ATOM     22  C   UNL A   1      38.469 -20.262 -32.829  0.00  0.00    -0.008 A 
ATOM     23  C   UNL A   1      37.165 -20.793 -32.762  0.00  0.00    -0.055 A 
ATOM     24  C   UNL A   1      36.054 -19.955 -32.657  0.00  0.00    -0.060 A 
ATOM     25  C   UNL A   1      36.224 -18.575 -32.616  0.00  0.00    -0.042 A 
ATOM     26  C   UNL A   1      37.504 -18.023 -32.676  0.00  0.00    +0.060 A 
ATOM     27 CL   UNL A   1      37.630 -16.302 -32.627  0.00  0.00    -0.082 Cl
ATOM     28  C   UNL A   1      38.629 -18.861 -32.782  0.00  0.00    +0.064 A 
ATOM     29 CL   UNL A   1      40.219 -18.171 -32.863  0.00  0.00    -0.082 Cl
ENDBRANCH  21  22
ENDBRANCH   5  21
TORSDOF 5
ENDMDL
MODEL 19
REMARK VINA RESULT:    -7.062     17.720     21.870
REMARK INTER + INTRA:          -9.905
REMARK INTER:                  -9.191
REMARK INTRA:                  -0.714
REMARK UNBOUND:                -0.778
REMARK  Name = cpd328.pdb
REMARK  5 active torsions:
REMARK  status: ('A' for Active; 'I' for Inactive)
REMARK    1  A    between atoms: C_2  and  C_3
REMARK    2  A    between atoms: C_2  and  C_20
REMARK    3  A    between atoms: C_4  and  C_5
REMARK    4  A    between atoms: N_9  and  C_10
REMARK    5  A    between atoms: C_10  and  C_11
REMARK                            x       y       z     vdW  Elec       q    Type
REMARK                         _______ _______ _______ _____ _____    ______ ____
ROOT
ATOM      1  C   UNL A   1      44.432 -19.302 -36.415  0.00  0.00    -0.009 A 
ATOM      2  C   UNL A   1      45.233 -19.589 -35.310  0.00  0.00    -0.052 A 
ATOM      3  C   UNL A   1      46.614 -19.458 -35.401  0.00  0.00    -0.045 A 
ATOM      4  C   UNL A   1      47.184 -19.057 -36.601  0.00  0.00    +0.005 A 
ATOM      5  N   UNL A   1      46.408 -18.809 -37.683  0.00  0.00    -0.348 N 
ATOM      6  C   UNL A   1      45.060 -18.922 -37.604  0.00  0.00    +0.012 A 
ENDROOT
BRANCH   1   8
ATOM      7  C   UNL A   1      42.257 -20.062 -37.332  0.00  0.00    -0.011 C 
ATOM      8  C   UNL A   1      42.967 -19.432 -36.384  0.00  0.00    -0.049 C 
BRANCH   7  10
ATOM      9  O   UNL A   1      40.170 -19.454 -38.136  0.00  0.00    -0.284 OA
ATOM     10  C   UNL A   1      40.766 -20.199 -37.358  0.00  0.00    +0.221 C 
BRANCH  10  11
ATOM     11  C   UNL A   1      40.081 -21.167 -36.525  0.00  0.00    +0.176 A 
ATOM     12  C   UNL A   1      39.384 -22.306 -36.886  0.00  0.00    -0.005 A 
ATOM     13  C   UNL A   1      38.950 -22.929 -35.689  0.00  0.00    +0.022 A 
ATOM     14  C   UNL A   1      38.218 -24.085 -35.367  0.00  0.00    -0.037 A 
ATOM     15  C   UNL A   1      38.002 -24.377 -34.014  0.00  0.00    +0.019 A 
ATOM     16 BR   UNL A   1      37.019 -25.928 -33.551  0.00  0.00    -0.050 Br
ATOM     17  C   UNL A   1      38.495 -23.552 -33.000  0.00  0.00    -0.044 A 
ATOM     18  C   UNL A   1      39.226 -22.398 -33.305  0.00  0.00    -0.018 A 
ATOM     19  C   UNL A   1      39.426 -22.130 -34.657  0.00  0.00    +0.136 A 
ATOM     20  O   UNL A   1      40.109 -21.064 -35.159  0.00  0.00    -0.452 OA
ENDBRANCH  10  11
ENDBRANCH   7  10
ENDBRANCH   1   8
BRANCH   5  21
ATOM     21  C   UNL A   1      47.042 -18.381 -38.959  0.00  0.00    +0.049 C 
BRANCH  21  22
ATOM     22  C   UNL A   1      46.236 -18.839 -40.152  0.00  0.00    -0.008 A 
ATOM     23  C   UNL A   1      45.341 -17.930 -40.753  0.00  0.00    -0.055 A 
ATOM     24  C   UNL A   1      44.565 -18.307 -41.850  0.00  0.00    -0.060 A 
ATOM     25  C   UNL A   1      44.667 -19.595 -42.367  0.00  0.00    -0.042 A 
ATOM     26  C   UNL A   1      45.547 -20.513 -41.794  0.00  0.00    +0.060 A 
ATOM     27 CL   UNL A   1      45.611 -22.093 -42.489  0.00  0.00    -0.082 Cl
ATOM     28  C   UNL A   1      46.334 -20.141 -40.688  0.00  0.00    +0.064 A 
ATOM     29 CL   UNL A   1      47.424 -21.288 -39.974  0.00  0.00    -0.082 Cl
ENDBRANCH  21  22
ENDBRANCH   5  21
TORSDOF 5
ENDMDL
MODEL 20
REMARK VINA RESULT:    -7.036     20.263     23.712
REMARK INTER + INTRA:          -9.871
REMARK INTER:                  -9.130
REMARK INTRA:                  -0.741
REMARK UNBOUND:                -0.778
REMARK  Name = cpd328.pdb
REMARK  5 active torsions:
REMARK  status: ('A' for Active; 'I' for Inactive)
REMARK    1  A    between atoms: C_2  and  C_3
REMARK    2  A    between atoms: C_2  and  C_20
REMARK    3  A    between atoms: C_4  and  C_5
REMARK    4  A    between atoms: N_9  and  C_10
REMARK    5  A    between atoms: C_10  and  C_11
REMARK                            x       y       z     vdW  Elec       q    Type
REMARK                         _______ _______ _______ _____ _____    ______ ____
ROOT
ATOM      1  C   UNL A   1      45.687 -17.274 -36.311  0.00  0.00    -0.009 A 
ATOM      2  C   UNL A   1      46.145 -16.106 -36.919  0.00  0.00    -0.052 A 
ATOM      3  C   UNL A   1      46.863 -16.176 -38.107  0.00  0.00    -0.045 A 
ATOM      4  C   UNL A   1      47.131 -17.416 -38.670  0.00  0.00    +0.005 A 
ATOM      5  N   UNL A   1      46.714 -18.553 -38.063  0.00  0.00    -0.348 N 
ATOM      6  C   UNL A   1      46.003 -18.496 -36.910  0.00  0.00    +0.012 A 
ENDROOT
BRANCH   1   8
ATOM      7  C   UNL A   1      45.030 -18.227 -34.118  0.00  0.00    -0.011 C 
ATOM      8  C   UNL A   1      44.933 -17.265 -35.049  0.00  0.00    -0.049 C 
BRANCH   7  10
ATOM      9  O   UNL A   1      44.861 -17.867 -31.834  0.00  0.00    -0.284 OA
ATOM     10  C   UNL A   1      44.266 -18.275 -32.831  0.00  0.00    +0.221 C 
BRANCH  10  11
ATOM     11  C   UNL A   1      42.900 -18.757 -32.782  0.00  0.00    +0.176 A 
ATOM     12  C   UNL A   1      41.711 -18.053 -32.851  0.00  0.00    -0.005 A 
ATOM     13  C   UNL A   1      40.659 -19.002 -32.806  0.00  0.00    +0.022 A 
ATOM     14  C   UNL A   1      39.255 -18.946 -32.837  0.00  0.00    -0.037 A 
ATOM     15  C   UNL A   1      38.542 -20.151 -32.782  0.00  0.00    +0.019 A 
ATOM     16 BR   UNL A   1      36.649 -20.105 -32.821  0.00  0.00    -0.050 Br
ATOM     17  C   UNL A   1      39.194 -21.383 -32.701  0.00  0.00    -0.044 A 
ATOM     18  C   UNL A   1      40.592 -21.455 -32.670  0.00  0.00    -0.018 A 
ATOM     19  C   UNL A   1      41.277 -20.244 -32.724  0.00  0.00    +0.136 A 
ATOM     20  O   UNL A   1      42.631 -20.099 -32.708  0.00  0.00    -0.452 OA
ENDBRANCH  10  11
ENDBRANCH   7  10
ENDBRANCH   1   8
BRANCH   5  21
ATOM     21  C   UNL A   1      47.014 -19.871 -38.685  0.00  0.00    +0.049 C 
BRANCH  21  22
ATOM     22  C   UNL A   1      46.088 -20.153 -39.845  0.00  0.00    -0.008 A 
ATOM     23  C   UNL A   1      46.569 -19.957 -41.156  0.00  0.00    -0.055 A 
ATOM     24  C   UNL A   1      45.751 -20.192 -42.262  0.00  0.00    -0.060 A 
ATOM     25  C   UNL A   1      44.442 -20.628 -42.081  0.00  0.00    -0.042 A 
ATOM     26  C   UNL A   1      43.943 -20.834 -40.795  0.00  0.00    +0.060 A 
ATOM     27 CL   UNL A   1      42.306 -21.368 -40.655  0.00  0.00    -0.082 Cl
ATOM     28  C   UNL A   1      44.761 -20.599 -39.675  0.00  0.00    +0.064 A 
ATOM     29 CL   UNL A   1      44.134 -20.852 -38.076  0.00  0.00    -0.082 Cl
ENDBRANCH  21  22
ENDBRANCH   5  21
TORSDOF 5
ENDMDL
