REMARK  Name = cpd328.pdb
REMARK  5 active torsions:
REMARK  status: ('A' for Active; 'I' for Inactive)
REMARK    1  A    between atoms: C_2  and  C_3
REMARK    2  A    between atoms: C_2  and  C_20
REMARK    3  A    between atoms: C_4  and  C_5
REMARK    4  A    between atoms: N_9  and  C_10
REMARK    5  A    between atoms: C_10  and  C_11
REMARK                            x       y       z     vdW  Elec       q    Type
REMARK                         _______ _______ _______ _____ _____    ______ ____
ROOT
ATOM      1  C   UNL A   1      -3.409  -0.063   0.718  0.00  0.00    -0.009 A 
ATOM      2  C   UNL A   1      -4.613   0.612   0.918  0.00  0.00    -0.052 A 
ATOM      3  C   UNL A   1      -5.745  -0.090   1.317  0.00  0.00    -0.045 A 
ATOM      4  C   UNL A   1      -5.667  -1.464   1.498  0.00  0.00    +0.005 A 
ATOM      5  N   UNL A   1      -4.506  -2.124   1.273  0.00  0.00    -0.348 N 
ATOM      6  C   UNL A   1      -3.393  -1.449   0.894  0.00  0.00    +0.012 A 
ENDROOT
BRANCH   1   8
ATOM      7  C   UNL A   1      -1.834   1.852   0.693  0.00  0.00    -0.011 C 
ATOM      8  C   UNL A   1      -2.182   0.622   0.285  0.00  0.00    -0.049 C 
BRANCH   7  10
ATOM      9  O   UNL A   1      -0.706   3.827   0.246  0.00  0.00    -0.284 OA
ATOM     10  C   UNL A   1      -0.611   2.600   0.261  0.00  0.00    +0.221 C 
BRANCH  10  11
ATOM     11  C   UNL A   1       0.611   1.908  -0.096  0.00  0.00    +0.176 A 
ATOM     12  C   UNL A   1       1.774   2.402  -0.660  0.00  0.00    -0.005 A 
ATOM     13  C   UNL A   1       2.684   1.320  -0.760  0.00  0.00    +0.022 A 
ATOM     14  C   UNL A   1       3.999   1.154  -1.228  0.00  0.00    -0.037 A 
ATOM     15  C   UNL A   1       4.578  -0.119  -1.141  0.00  0.00    +0.019 A 
ATOM     16 BR   UNL A   1       6.348  -0.371  -1.764  0.00  0.00    -0.050 Br
ATOM     17  C   UNL A   1       3.881  -1.204  -0.604  0.00  0.00    -0.044 A 
ATOM     18  C   UNL A   1       2.571  -1.054  -0.134  0.00  0.00    -0.018 A 
ATOM     19  C   UNL A   1       2.018   0.220  -0.233  0.00  0.00    +0.136 A 
ATOM     20  O   UNL A   1       0.765   0.572   0.168  0.00  0.00    -0.452 OA
ENDBRANCH  10  11
ENDBRANCH   7  10
ENDBRANCH   1   8
BRANCH   5  21
ATOM     21  C   UNL A   1      -4.447  -3.597   1.472  0.00  0.00    +0.049 C 
BRANCH  21  22
ATOM     22  C   UNL A   1      -5.103  -4.332   0.326  0.00  0.00    -0.008 A 
ATOM     23  C   UNL A   1      -4.430  -4.393  -0.911  0.00  0.00    -0.055 A 
ATOM     24  C   UNL A   1      -4.997  -5.049  -2.004  0.00  0.00    -0.060 A 
ATOM     25  C   UNL A   1      -6.243  -5.656  -1.883  0.00  0.00    -0.042 A 
ATOM     26  C   UNL A   1      -6.929  -5.614  -0.669  0.00  0.00    +0.060 A 
ATOM     27 CL   UNL A   1      -8.473  -6.385  -0.602  0.00  0.00    -0.082 Cl
ATOM     28  C   UNL A   1      -6.364  -4.955   0.438  0.00  0.00    +0.064 A 
ATOM     29 CL   UNL A   1      -7.223  -4.900   1.945  0.00  0.00    -0.082 Cl
ENDBRANCH  21  22
ENDBRANCH   5  21
TORSDOF 5
