@<TRIPOS>MOLECULE
*****
 32 35 0 0 0
SMALL
GASTEIGER

@<TRIPOS>ATOM
      1 C          -1.7321   -2.0000    0.0000 C.3     1  UNL1        0.2526
      2 O          -0.8660   -1.5000    0.0000 O.3     1  UNL1       -0.4683
      3 C          -0.8660   -0.5000    0.0000 C.ar    1  UNL1        0.1751
      4 C          -1.7321   -0.0000    0.0000 C.ar    1  UNL1        0.0360
      5 C          -1.7321    1.0000    0.0000 C.ar    1  UNL1       -0.0155
      6 C          -2.5981    1.5000    0.0000 C.3     1  UNL1        0.0362
      7 C          -2.5981    2.5000    0.0000 C.3     1  UNL1        0.0932
      8 C          -3.4641    3.0000    0.0000 C.2     1  UNL1        0.2610
      9 O          -3.4641    4.0000    0.0000 O.2     1  UNL1       -0.2716
     10 N          -4.3301    2.5000    0.0000 N.am    1  UNL1       -0.0905
     11 N          -5.1962    3.0000    0.0000 N.pl3   1  UNL1       -0.1256
     12 C          -6.0622    2.5000    0.0000 C.ar    1  UNL1        0.0877
     13 C          -6.9282    3.0000    0.0000 C.ar    1  UNL1        0.0081
     14 C          -7.7942    2.5000    0.0000 C.ar    1  UNL1        0.0563
     15 N          -7.7942    1.5000    0.0000 N.ar    1  UNL1       -0.2499
     16 C          -6.9282    1.0000    0.0000 C.ar    1  UNL1        0.0822
     17 C          -6.9282   -0.0000    0.0000 C.ar    1  UNL1        0.0191
     18 C          -6.0622   -0.5000    0.0000 C.ar    1  UNL1        0.0015
     19 C          -5.1962   -0.0000    0.0000 C.ar    1  UNL1        0.0001
     20 C          -5.1962    1.0000    0.0000 C.ar    1  UNL1        0.0028
     21 C          -6.0622    1.5000    0.0000 C.ar    1  UNL1        0.0341
     22 C          -8.6603    3.0000    0.0000 C.3     1  UNL1        0.0455
     23 C          -8.6603    4.0000    0.0000 C.3     1  UNL1        0.0066
     24 C          -7.7942    4.5000    0.0000 C.3     1  UNL1        0.0052
     25 C          -6.9282    4.0000    0.0000 C.3     1  UNL1        0.0289
     26 C          -0.8660    1.5000    0.0000 C.ar    1  UNL1        0.0360
     27 C          -0.0000    1.0000    0.0000 C.ar    1  UNL1        0.1751
     28 O           0.8660    1.5000    0.0000 O.3     1  UNL1       -0.4683
     29 C           0.8660    2.5000    0.0000 C.3     1  UNL1        0.2526
     30 C           0.0000    0.0000    0.0000 C.ar    1  UNL1        0.2060
     31 O           0.8660   -0.5000    0.0000 O.3     1  UNL1       -0.4654
     32 C           1.7321    0.0000    0.0000 C.3     1  UNL1        0.2528
@<TRIPOS>BOND
     1     1     2    1
     2     2     3    1
     3     3     4   ar
     4     4     5   ar
     5     5     6    1
     6     6     7    1
     7     7     8    1
     8     8     9    2
     9     8    10   am
    10    10    11    1
    11    11    12    1
    12    12    13   ar
    13    13    14   ar
    14    14    15   ar
    15    15    16   ar
    16    16    17   ar
    17    17    18   ar
    18    18    19   ar
    19    19    20   ar
    20    20    21   ar
    21    12    21   ar
    22    16    21   ar
    23    14    22    1
    24    22    23    1
    25    23    24    1
    26    24    25    1
    27    13    25    1
    28     5    26   ar
    29    26    27   ar
    30    27    28    1
    31    28    29    1
    32    27    30   ar
    33     3    30   ar
    34    30    31    1
    35    31    32    1
