REMARK  Name = cpd80.pdb
REMARK  11 active torsions:
REMARK  status: ('A' for Active; 'I' for Inactive)
REMARK    1  A    between atoms: C_1  and  O_2
REMARK    2  A    between atoms: O_2  and  C_3
REMARK    3  A    between atoms: C_5  and  C_6
REMARK    4  A    between atoms: C_6  and  C_7
REMARK    5  A    between atoms: C_7  and  C_8
REMARK    6  A    between atoms: N_10  and  N_11
REMARK    7  A    between atoms: N_11  and  C_12
REMARK    8  A    between atoms: C_27  and  O_28
REMARK    9  A    between atoms: O_28  and  C_29
REMARK   10  A    between atoms: C_30  and  O_31
REMARK   11  A    between atoms: O_31  and  C_32
REMARK                            x       y       z     vdW  Elec       q    Type
REMARK                         _______ _______ _______ _____ _____    ______ ____
ROOT
ATOM      1  C   UNL A   1      -3.868   3.209   0.773  0.00  0.00    +0.229 C 
ATOM      2  O   UNL A   1      -3.970   4.316   1.296  0.00  0.00    -0.274 OA
ATOM      3  N   UNL A   1      -4.879   2.267   0.786  0.00  0.00    -0.236 N 
ATOM      4  H   UNL A   1      -4.819   1.446   0.247  0.00  0.00    +0.000 HD
ENDROOT
BRANCH   3   5
ATOM      5  N   UNL A   1      -6.002   2.528   1.603  0.00  0.00    -0.264 N 
ATOM      6  H   UNL A   1      -5.964   2.893   2.517  0.00  0.00    +0.000 HD
BRANCH   5   7
ATOM      7  C   UNL A   1      -7.203   2.184   0.906  0.00  0.00    +0.058 A 
ATOM      8  C   UNL A   1      -7.914   3.155   0.171  0.00  0.00    -0.003 A 
ATOM      9  C   UNL A   1      -9.049   2.730  -0.523  0.00  0.00    +0.047 A 
ATOM     10  N   UNL A   1      -9.451   1.438  -0.569  0.00  0.00    -0.251 NA
ATOM     11  C   UNL A   1      -8.761   0.514   0.111  0.00  0.00    +0.073 A 
ATOM     12  C   UNL A   1      -9.192  -0.806   0.054  0.00  0.00    -0.036 A 
ATOM     13  C   UNL A   1      -8.539  -1.829   0.745  0.00  0.00    -0.060 A 
ATOM     14  C   UNL A   1      -7.430  -1.532   1.521  0.00  0.00    -0.061 A 
ATOM     15  C   UNL A   1      -6.978  -0.215   1.591  0.00  0.00    -0.051 A 
ATOM     16  C   UNL A   1      -7.624   0.826   0.879  0.00  0.00    +0.023 A 
ATOM     17  C   UNL A   1      -9.888   3.684  -1.334  0.00  0.00    -0.010 C 
ATOM     18  C   UNL A   1      -9.701   5.141  -0.928  0.00  0.00    -0.047 C 
ATOM     19  C   UNL A   1      -8.217   5.468  -0.873  0.00  0.00    -0.049 C 
ATOM     20  C   UNL A   1      -7.515   4.612   0.181  0.00  0.00    -0.024 C 
ENDBRANCH   5   7
ENDBRANCH   3   5
BRANCH   1  21
ATOM     21  C   UNL A   1      -2.606   2.734   0.097  0.00  0.00    +0.029 C 
BRANCH  21  22
ATOM     22  C   UNL A   1      -1.751   1.960   1.094  0.00  0.00    -0.019 C 
BRANCH  22  25
ATOM     23  C   UNL A   1       0.522  -0.590  -0.603  0.00  0.00    +0.165 A 
ATOM     24  C   UNL A   1      -0.582  -0.007   0.023  0.00  0.00    -0.013 A 
ATOM     25  C   UNL A   1      -0.547   1.336   0.431  0.00  0.00    -0.040 A 
ATOM     26  C   UNL A   1       0.605   2.104   0.195  0.00  0.00    -0.013 A 
ATOM     27  C   UNL A   1       1.720   1.541  -0.431  0.00  0.00    +0.165 A 
ATOM     28  C   UNL A   1       1.674   0.187  -0.807  0.00  0.00    +0.204 A 
BRANCH  23  30
ATOM     29  C   UNL A   1      -0.606  -2.665  -0.957  0.00  0.00    +0.079 C 
ATOM     30  O   UNL A   1       0.582  -1.891  -1.033  0.00  0.00    -0.491 OA
ENDBRANCH  23  30
BRANCH  27  31
ATOM     31  O   UNL A   1       2.886   2.208  -0.703  0.00  0.00    -0.491 OA
ATOM     32  C   UNL A   1       2.908   3.610  -0.475  0.00  0.00    +0.079 C 
ENDBRANCH  27  31
BRANCH  28  33
ATOM     33  O   UNL A   1       2.753  -0.367  -1.463  0.00  0.00    -0.488 OA
ATOM     34  C   UNL A   1       3.648  -0.944  -0.514  0.00  0.00    +0.079 C 
ENDBRANCH  28  33
ENDBRANCH  22  25
ENDBRANCH  21  22
ENDBRANCH   1  21
TORSDOF 8
