MODEL 1
REMARK VINA RESULT:    -8.184      0.000      0.000
REMARK INTER + INTRA:         -13.387
REMARK INTER:                 -12.012
REMARK INTRA:                  -1.375
REMARK UNBOUND:                -1.375
REMARK  Name = cpd80.pdb
REMARK  11 active torsions:
REMARK  status: ('A' for Active; 'I' for Inactive)
REMARK    1  A    between atoms: C_1  and  O_2
REMARK    2  A    between atoms: O_2  and  C_3
REMARK    3  A    between atoms: C_5  and  C_6
REMARK    4  A    between atoms: C_6  and  C_7
REMARK    5  A    between atoms: C_7  and  C_8
REMARK    6  A    between atoms: N_10  and  N_11
REMARK    7  A    between atoms: N_11  and  C_12
REMARK    8  A    between atoms: C_27  and  O_28
REMARK    9  A    between atoms: O_28  and  C_29
REMARK   10  A    between atoms: C_30  and  O_31
REMARK   11  A    between atoms: O_31  and  C_32
REMARK                            x       y       z     vdW  Elec       q    Type
REMARK                         _______ _______ _______ _____ _____    ______ ____
ROOT
ATOM      1  C   UNL A   1      36.022 -39.835 -28.536  0.00  0.00    +0.229 C 
ATOM      2  O   UNL A   1      35.256 -39.334 -27.716  0.00  0.00    -0.274 OA
ATOM      3  N   UNL A   1      37.290 -39.346 -28.788  0.00  0.00    -0.236 N 
ATOM      4  H   UNL A   1      37.927 -39.844 -29.348  0.00  0.00    +0.000 HD
ENDROOT
BRANCH   3   5
ATOM      5  N   UNL A   1      37.636 -38.104 -28.210  0.00  0.00    -0.264 N 
ATOM      6  H   UNL A   1      37.716 -37.932 -27.244  0.00  0.00    +0.000 HD
BRANCH   5   7
ATOM      7  C   UNL A   1      37.852 -37.132 -29.237  0.00  0.00    +0.058 A 
ATOM      8  C   UNL A   1      39.074 -37.082 -29.938  0.00  0.00    -0.003 A 
ATOM      9  C   UNL A   1      39.190 -36.138 -30.961  0.00  0.00    +0.047 A 
ATOM     10  N   UNL A   1      38.175 -35.327 -31.341  0.00  0.00    -0.251 NA
ATOM     11  C   UNL A   1      37.007 -35.391 -30.689  0.00  0.00    +0.073 A 
ATOM     12  C   UNL A   1      35.979 -34.547 -31.091  0.00  0.00    -0.036 A 
ATOM     13  C   UNL A   1      34.735 -34.540 -30.456  0.00  0.00    -0.060 A 
ATOM     14  C   UNL A   1      34.508 -35.390 -29.386  0.00  0.00    -0.061 A 
ATOM     15  C   UNL A   1      35.524 -36.247 -28.966  0.00  0.00    -0.051 A 
ATOM     16  C   UNL A   1      36.783 -36.274 -29.616  0.00  0.00    +0.023 A 
ATOM     17  C   UNL A   1      40.454 -35.993 -31.769  0.00  0.00    -0.010 C 
ATOM     18  C   UNL A   1      41.681 -36.566 -31.071  0.00  0.00    -0.047 C 
ATOM     19  C   UNL A   1      41.380 -37.975 -30.586  0.00  0.00    -0.049 C 
ATOM     20  C   UNL A   1      40.244 -37.962 -29.564  0.00  0.00    -0.024 C 
ENDBRANCH   5   7
ENDBRANCH   3   5
BRANCH   1  21
ATOM     21  C   UNL A   1      35.646 -41.015 -29.396  0.00  0.00    +0.029 C 
BRANCH  21  22
ATOM     22  C   UNL A   1      36.209 -40.826 -30.800  0.00  0.00    -0.019 C 
BRANCH  22  25
ATOM     23  C   UNL A   1      33.724 -40.826 -33.693  0.00  0.00    +0.165 A 
ATOM     24  C   UNL A   1      34.715 -41.231 -32.797  0.00  0.00    -0.013 A 
ATOM     25  C   UNL A   1      35.147 -40.373 -31.772  0.00  0.00    -0.040 A 
ATOM     26  C   UNL A   1      34.566 -39.101 -31.639  0.00  0.00    -0.013 A 
ATOM     27  C   UNL A   1      33.571 -38.677 -32.524  0.00  0.00    +0.165 A 
ATOM     28  C   UNL A   1      33.173 -39.541 -33.560  0.00  0.00    +0.204 A 
BRANCH  23  30
ATOM     29  C   UNL A   1      33.374 -43.000 -34.618  0.00  0.00    +0.079 C 
ATOM     30  O   UNL A   1      33.241 -41.590 -34.724  0.00  0.00    -0.491 OA
ENDBRANCH  23  30
BRANCH  27  31
ATOM     31  O   UNL A   1      32.947 -37.458 -32.476  0.00  0.00    -0.491 OA
ATOM     32  C   UNL A   1      32.049 -37.224 -31.400  0.00  0.00    +0.079 C 
ENDBRANCH  27  31
BRANCH  28  33
ATOM     33  O   UNL A   1      32.163 -39.149 -34.413  0.00  0.00    -0.488 OA
ATOM     34  C   UNL A   1      30.914 -39.651 -33.942  0.00  0.00    +0.079 C 
ENDBRANCH  28  33
ENDBRANCH  22  25
ENDBRANCH  21  22
ENDBRANCH   1  21
TORSDOF 8
ENDMDL
MODEL 2
REMARK VINA RESULT:    -8.169      0.376      2.240
REMARK INTER + INTRA:         -13.365
REMARK INTER:                 -11.908
REMARK INTRA:                  -1.457
REMARK UNBOUND:                -1.375
REMARK  Name = cpd80.pdb
REMARK  11 active torsions:
REMARK  status: ('A' for Active; 'I' for Inactive)
REMARK    1  A    between atoms: C_1  and  O_2
REMARK    2  A    between atoms: O_2  and  C_3
REMARK    3  A    between atoms: C_5  and  C_6
REMARK    4  A    between atoms: C_6  and  C_7
REMARK    5  A    between atoms: C_7  and  C_8
REMARK    6  A    between atoms: N_10  and  N_11
REMARK    7  A    between atoms: N_11  and  C_12
REMARK    8  A    between atoms: C_27  and  O_28
REMARK    9  A    between atoms: O_28  and  C_29
REMARK   10  A    between atoms: C_30  and  O_31
REMARK   11  A    between atoms: O_31  and  C_32
REMARK                            x       y       z     vdW  Elec       q    Type
REMARK                         _______ _______ _______ _____ _____    ______ ____
ROOT
ATOM      1  C   UNL A   1      35.945 -39.856 -28.620  0.00  0.00    +0.229 C 
ATOM      2  O   UNL A   1      35.252 -39.458 -27.687  0.00  0.00    -0.274 OA
ATOM      3  N   UNL A   1      37.158 -39.289 -28.960  0.00  0.00    -0.236 N 
ATOM      4  H   UNL A   1      37.752 -39.710 -29.622  0.00  0.00    +0.000 HD
ENDROOT
BRANCH   3   5
ATOM      5  N   UNL A   1      37.515 -38.080 -28.320  0.00  0.00    -0.264 N 
ATOM      6  H   UNL A   1      37.609 -37.961 -27.347  0.00  0.00    +0.000 HD
BRANCH   5   7
ATOM      7  C   UNL A   1      37.719 -37.054 -29.295  0.00  0.00    +0.058 A 
ATOM      8  C   UNL A   1      38.948 -36.941 -29.978  0.00  0.00    -0.003 A 
ATOM      9  C   UNL A   1      39.053 -35.945 -30.951  0.00  0.00    +0.047 A 
ATOM     10  N   UNL A   1      38.023 -35.140 -31.303  0.00  0.00    -0.251 NA
ATOM     11  C   UNL A   1      36.850 -35.263 -30.669  0.00  0.00    +0.073 A 
ATOM     12  C   UNL A   1      35.807 -34.424 -31.042  0.00  0.00    -0.036 A 
ATOM     13  C   UNL A   1      34.556 -34.477 -30.423  0.00  0.00    -0.060 A 
ATOM     14  C   UNL A   1      34.337 -35.384 -29.399  0.00  0.00    -0.061 A 
ATOM     15  C   UNL A   1      35.368 -36.237 -29.009  0.00  0.00    -0.051 A 
ATOM     16  C   UNL A   1      36.635 -36.203 -29.644  0.00  0.00    +0.023 A 
ATOM     17  C   UNL A   1      40.321 -35.731 -31.736  0.00  0.00    -0.010 C 
ATOM     18  C   UNL A   1      41.554 -36.310 -31.052  0.00  0.00    -0.047 C 
ATOM     19  C   UNL A   1      41.281 -37.748 -30.641  0.00  0.00    -0.049 C 
ATOM     20  C   UNL A   1      40.134 -37.812 -29.633  0.00  0.00    -0.024 C 
ENDBRANCH   5   7
ENDBRANCH   3   5
BRANCH   1  21
ATOM     21  C   UNL A   1      35.526 -40.981 -29.532  0.00  0.00    +0.029 C 
BRANCH  21  22
ATOM     22  C   UNL A   1      36.060 -40.728 -30.937  0.00  0.00    -0.019 C 
BRANCH  22  25
ATOM     23  C   UNL A   1      33.437 -38.587 -32.693  0.00  0.00    +0.165 A 
ATOM     24  C   UNL A   1      34.442 -38.998 -31.815  0.00  0.00    -0.013 A 
ATOM     25  C   UNL A   1      34.964 -40.299 -31.882  0.00  0.00    -0.040 A 
ATOM     26  C   UNL A   1      34.480 -41.192 -32.852  0.00  0.00    -0.013 A 
ATOM     27  C   UNL A   1      33.476 -40.802 -33.742  0.00  0.00    +0.165 A 
ATOM     28  C   UNL A   1      32.948 -39.503 -33.639  0.00  0.00    +0.204 A 
BRANCH  23  30
ATOM     29  C   UNL A   1      31.973 -37.019 -31.644  0.00  0.00    +0.079 C 
ATOM     30  O   UNL A   1      32.865 -37.340 -32.701  0.00  0.00    -0.491 OA
ENDBRANCH  23  30
BRANCH  27  31
ATOM     31  O   UNL A   1      32.941 -41.600 -34.719  0.00  0.00    -0.491 OA
ATOM     32  C   UNL A   1      33.752 -41.886 -35.849  0.00  0.00    +0.079 C 
ENDBRANCH  27  31
BRANCH  28  33
ATOM     33  O   UNL A   1      31.987 -39.093 -34.539  0.00  0.00    -0.488 OA
ATOM     34  C   UNL A   1      30.694 -39.467 -34.066  0.00  0.00    +0.079 C 
ENDBRANCH  28  33
ENDBRANCH  22  25
ENDBRANCH  21  22
ENDBRANCH   1  21
TORSDOF 8
ENDMDL
MODEL 3
REMARK VINA RESULT:    -7.941      1.749      4.004
REMARK INTER + INTRA:         -13.030
REMARK INTER:                 -11.904
REMARK INTRA:                  -1.126
REMARK UNBOUND:                -1.375
REMARK  Name = cpd80.pdb
REMARK  11 active torsions:
REMARK  status: ('A' for Active; 'I' for Inactive)
REMARK    1  A    between atoms: C_1  and  O_2
REMARK    2  A    between atoms: O_2  and  C_3
REMARK    3  A    between atoms: C_5  and  C_6
REMARK    4  A    between atoms: C_6  and  C_7
REMARK    5  A    between atoms: C_7  and  C_8
REMARK    6  A    between atoms: N_10  and  N_11
REMARK    7  A    between atoms: N_11  and  C_12
REMARK    8  A    between atoms: C_27  and  O_28
REMARK    9  A    between atoms: O_28  and  C_29
REMARK   10  A    between atoms: C_30  and  O_31
REMARK   11  A    between atoms: O_31  and  C_32
REMARK                            x       y       z     vdW  Elec       q    Type
REMARK                         _______ _______ _______ _____ _____    ______ ____
ROOT
ATOM      1  C   UNL A   1      34.284 -34.996 -32.553  0.00  0.00    +0.229 C 
ATOM      2  O   UNL A   1      33.865 -34.032 -31.917  0.00  0.00    -0.274 OA
ATOM      3  N   UNL A   1      35.535 -35.549 -32.358  0.00  0.00    -0.236 N 
ATOM      4  H   UNL A   1      35.791 -36.398 -32.785  0.00  0.00    +0.000 HD
ENDROOT
BRANCH   3   5
ATOM      5  N   UNL A   1      36.434 -34.847 -31.524  0.00  0.00    -0.264 N 
ATOM      6  H   UNL A   1      36.486 -33.867 -31.446  0.00  0.00    +0.000 HD
BRANCH   5   7
ATOM      7  C   UNL A   1      37.257 -35.772 -30.807  0.00  0.00    +0.058 A 
ATOM      8  C   UNL A   1      38.585 -36.020 -31.212  0.00  0.00    -0.003 A 
ATOM      9  C   UNL A   1      39.341 -36.898 -30.432  0.00  0.00    +0.047 A 
ATOM     10  N   UNL A   1      38.880 -37.461 -29.290  0.00  0.00    -0.251 NA
ATOM     11  C   UNL A   1      37.626 -37.206 -28.895  0.00  0.00    +0.073 A 
ATOM     12  C   UNL A   1      37.171 -37.796 -27.722  0.00  0.00    -0.036 A 
ATOM     13  C   UNL A   1      35.873 -37.595 -27.247  0.00  0.00    -0.060 A 
ATOM     14  C   UNL A   1      35.000 -36.790 -27.960  0.00  0.00    -0.061 A 
ATOM     15  C   UNL A   1      35.435 -36.185 -29.138  0.00  0.00    -0.051 A 
ATOM     16  C   UNL A   1      36.756 -36.370 -29.618  0.00  0.00    +0.023 A 
ATOM     17  C   UNL A   1      40.767 -37.240 -30.776  0.00  0.00    -0.010 C 
ATOM     18  C   UNL A   1      41.112 -36.974 -32.237  0.00  0.00    -0.047 C 
ATOM     19  C   UNL A   1      40.673 -35.568 -32.616  0.00  0.00    -0.049 C 
ATOM     20  C   UNL A   1      39.158 -35.421 -32.475  0.00  0.00    -0.024 C 
ENDBRANCH   5   7
ENDBRANCH   3   5
BRANCH   1  21
ATOM     21  C   UNL A   1      33.494 -35.658 -33.655  0.00  0.00    +0.029 C 
BRANCH  21  22
ATOM     22  C   UNL A   1      32.314 -36.414 -33.057  0.00  0.00    -0.019 C 
BRANCH  22  25
ATOM     23  C   UNL A   1      33.764 -39.849 -32.251  0.00  0.00    +0.165 A 
ATOM     24  C   UNL A   1      33.551 -38.469 -32.261  0.00  0.00    -0.013 A 
ATOM     25  C   UNL A   1      32.545 -37.906 -33.064  0.00  0.00    -0.040 A 
ATOM     26  C   UNL A   1      31.738 -38.741 -33.854  0.00  0.00    -0.013 A 
ATOM     27  C   UNL A   1      31.934 -40.124 -33.857  0.00  0.00    +0.165 A 
ATOM     28  C   UNL A   1      32.964 -40.665 -33.067  0.00  0.00    +0.204 A 
BRANCH  23  30
ATOM     29  C   UNL A   1      35.817 -39.716 -31.038  0.00  0.00    +0.079 C 
ATOM     30  O   UNL A   1      34.720 -40.488 -31.504  0.00  0.00    -0.491 OA
ENDBRANCH  23  30
BRANCH  27  31
ATOM     31  O   UNL A   1      31.199 -41.018 -34.592  0.00  0.00    -0.491 OA
ATOM     32  C   UNL A   1      30.992 -40.722 -35.966  0.00  0.00    +0.079 C 
ENDBRANCH  27  31
BRANCH  28  33
ATOM     33  O   UNL A   1      33.138 -42.032 -33.031  0.00  0.00    -0.488 OA
ATOM     34  C   UNL A   1      33.965 -42.440 -34.119  0.00  0.00    +0.079 C 
ENDBRANCH  28  33
ENDBRANCH  22  25
ENDBRANCH  21  22
ENDBRANCH   1  21
TORSDOF 8
ENDMDL
MODEL 4
REMARK VINA RESULT:    -7.809      4.068      6.544
REMARK INTER + INTRA:         -12.836
REMARK INTER:                 -12.460
REMARK INTRA:                  -0.376
REMARK UNBOUND:                -1.375
REMARK  Name = cpd80.pdb
REMARK  11 active torsions:
REMARK  status: ('A' for Active; 'I' for Inactive)
REMARK    1  A    between atoms: C_1  and  O_2
REMARK    2  A    between atoms: O_2  and  C_3
REMARK    3  A    between atoms: C_5  and  C_6
REMARK    4  A    between atoms: C_6  and  C_7
REMARK    5  A    between atoms: C_7  and  C_8
REMARK    6  A    between atoms: N_10  and  N_11
REMARK    7  A    between atoms: N_11  and  C_12
REMARK    8  A    between atoms: C_27  and  O_28
REMARK    9  A    between atoms: O_28  and  C_29
REMARK   10  A    between atoms: C_30  and  O_31
REMARK   11  A    between atoms: O_31  and  C_32
REMARK                            x       y       z     vdW  Elec       q    Type
REMARK                         _______ _______ _______ _____ _____    ______ ____
ROOT
ATOM      1  C   UNL A   1      35.329 -33.516 -31.188  0.00  0.00    +0.229 C 
ATOM      2  O   UNL A   1      34.506 -33.939 -31.997  0.00  0.00    -0.274 OA
ATOM      3  N   UNL A   1      36.637 -33.957 -31.135  0.00  0.00    -0.236 N 
ATOM      4  H   UNL A   1      37.305 -33.507 -30.570  0.00  0.00    +0.000 HD
ENDROOT
BRANCH   3   5
ATOM      5  N   UNL A   1      36.979 -35.079 -31.923  0.00  0.00    -0.264 N 
ATOM      6  H   UNL A   1      36.676 -35.234 -32.848  0.00  0.00    +0.000 HD
BRANCH   5   7
ATOM      7  C   UNL A   1      37.830 -35.956 -31.180  0.00  0.00    +0.058 A 
ATOM      8  C   UNL A   1      39.171 -36.157 -31.565  0.00  0.00    -0.003 A 
ATOM      9  C   UNL A   1      39.952 -36.989 -30.759  0.00  0.00    +0.047 A 
ATOM     10  N   UNL A   1      39.499 -37.550 -29.613  0.00  0.00    -0.251 NA
ATOM     11  C   UNL A   1      38.232 -37.339 -29.238  0.00  0.00    +0.073 A 
ATOM     12  C   UNL A   1      37.786 -37.927 -28.060  0.00  0.00    -0.036 A 
ATOM     13  C   UNL A   1      36.475 -37.771 -27.604  0.00  0.00    -0.060 A 
ATOM     14  C   UNL A   1      35.578 -37.015 -28.343  0.00  0.00    -0.061 A 
ATOM     15  C   UNL A   1      36.004 -36.414 -29.526  0.00  0.00    -0.051 A 
ATOM     16  C   UNL A   1      37.337 -36.553 -29.987  0.00  0.00    +0.023 A 
ATOM     17  C   UNL A   1      41.395 -37.280 -31.080  0.00  0.00    -0.010 C 
ATOM     18  C   UNL A   1      41.748 -37.026 -32.541  0.00  0.00    -0.047 C 
ATOM     19  C   UNL A   1      41.257 -35.646 -32.951  0.00  0.00    -0.049 C 
ATOM     20  C   UNL A   1      39.736 -35.558 -32.831  0.00  0.00    -0.024 C 
ENDBRANCH   5   7
ENDBRANCH   3   5
BRANCH   1  21
ATOM     21  C   UNL A   1      34.989 -32.498 -30.128  0.00  0.00    +0.029 C 
BRANCH  21  22
ATOM     22  C   UNL A   1      33.603 -31.921 -30.397  0.00  0.00    -0.019 C 
BRANCH  22  25
ATOM     23  C   UNL A   1      30.271 -32.698 -28.712  0.00  0.00    +0.165 A 
ATOM     24  C   UNL A   1      31.266 -32.050 -29.447  0.00  0.00    -0.013 A 
ATOM     25  C   UNL A   1      32.539 -32.624 -29.588  0.00  0.00    -0.040 A 
ATOM     26  C   UNL A   1      32.811 -33.869 -28.997  0.00  0.00    -0.013 A 
ATOM     27  C   UNL A   1      31.829 -34.535 -28.259  0.00  0.00    +0.165 A 
ATOM     28  C   UNL A   1      30.569 -33.930 -28.106  0.00  0.00    +0.204 A 
BRANCH  23  30
ATOM     29  C   UNL A   1      28.555 -31.172 -29.369  0.00  0.00    +0.079 C 
ATOM     30  O   UNL A   1      29.002 -32.216 -28.516  0.00  0.00    -0.491 OA
ENDBRANCH  23  30
BRANCH  27  31
ATOM     31  O   UNL A   1      31.999 -35.749 -27.645  0.00  0.00    -0.491 OA
ATOM     32  C   UNL A   1      32.724 -35.771 -26.424  0.00  0.00    +0.079 C 
ENDBRANCH  27  31
BRANCH  28  33
ATOM     33  O   UNL A   1      29.580 -34.598 -27.415  0.00  0.00    -0.488 OA
ATOM     34  C   UNL A   1      28.855 -35.441 -28.309  0.00  0.00    +0.079 C 
ENDBRANCH  28  33
ENDBRANCH  22  25
ENDBRANCH  21  22
ENDBRANCH   1  21
TORSDOF 8
ENDMDL
MODEL 5
REMARK VINA RESULT:    -7.744      4.109      7.797
REMARK INTER + INTRA:         -12.741
REMARK INTER:                 -11.550
REMARK INTRA:                  -1.191
REMARK UNBOUND:                -1.375
REMARK  Name = cpd80.pdb
REMARK  11 active torsions:
REMARK  status: ('A' for Active; 'I' for Inactive)
REMARK    1  A    between atoms: C_1  and  O_2
REMARK    2  A    between atoms: O_2  and  C_3
REMARK    3  A    between atoms: C_5  and  C_6
REMARK    4  A    between atoms: C_6  and  C_7
REMARK    5  A    between atoms: C_7  and  C_8
REMARK    6  A    between atoms: N_10  and  N_11
REMARK    7  A    between atoms: N_11  and  C_12
REMARK    8  A    between atoms: C_27  and  O_28
REMARK    9  A    between atoms: O_28  and  C_29
REMARK   10  A    between atoms: C_30  and  O_31
REMARK   11  A    between atoms: O_31  and  C_32
REMARK                            x       y       z     vdW  Elec       q    Type
REMARK                         _______ _______ _______ _____ _____    ______ ____
ROOT
ATOM      1  C   UNL A   1      34.285 -33.266 -31.764  0.00  0.00    +0.229 C 
ATOM      2  O   UNL A   1      33.349 -33.834 -32.322  0.00  0.00    -0.274 OA
ATOM      3  N   UNL A   1      35.513 -33.862 -31.544  0.00  0.00    -0.236 N 
ATOM      4  H   UNL A   1      36.281 -33.341 -31.218  0.00  0.00    +0.000 HD
ENDROOT
BRANCH   3   5
ATOM      5  N   UNL A   1      35.621 -35.246 -31.805  0.00  0.00    -0.264 N 
ATOM      6  H   UNL A   1      35.303 -35.694 -32.622  0.00  0.00    +0.000 HD
BRANCH   5   7
ATOM      7  C   UNL A   1      36.262 -35.901 -30.706  0.00  0.00    +0.058 A 
ATOM      8  C   UNL A   1      35.523 -36.302 -29.575  0.00  0.00    -0.003 A 
ATOM      9  C   UNL A   1      36.211 -36.980 -28.566  0.00  0.00    +0.047 A 
ATOM     10  N   UNL A   1      37.519 -37.316 -28.657  0.00  0.00    -0.251 NA
ATOM     11  C   UNL A   1      38.214 -36.954 -29.743  0.00  0.00    +0.073 A 
ATOM     12  C   UNL A   1      39.556 -37.306 -29.815  0.00  0.00    -0.036 A 
ATOM     13  C   UNL A   1      40.356 -36.955 -30.904  0.00  0.00    -0.060 A 
ATOM     14  C   UNL A   1      39.810 -36.228 -31.950  0.00  0.00    -0.061 A 
ATOM     15  C   UNL A   1      38.464 -35.867 -31.900  0.00  0.00    -0.051 A 
ATOM     16  C   UNL A   1      37.641 -36.234 -30.807  0.00  0.00    +0.023 A 
ATOM     17  C   UNL A   1      35.522 -37.448 -27.310  0.00  0.00    -0.010 C 
ATOM     18  C   UNL A   1      34.222 -36.704 -27.027  0.00  0.00    -0.047 C 
ATOM     19  C   UNL A   1      33.357 -36.697 -28.277  0.00  0.00    -0.049 C 
ATOM     20  C   UNL A   1      34.060 -35.958 -29.415  0.00  0.00    -0.024 C 
ENDBRANCH   5   7
ENDBRANCH   3   5
BRANCH   1  21
ATOM     21  C   UNL A   1      34.183 -31.866 -31.212  0.00  0.00    +0.029 C 
BRANCH  21  22
ATOM     22  C   UNL A   1      33.779 -31.923 -29.743  0.00  0.00    -0.019 C 
BRANCH  22  25
ATOM     23  C   UNL A   1      30.191 -30.627 -29.748  0.00  0.00    +0.165 A 
ATOM     24  C   UNL A   1      31.580 -30.688 -29.888  0.00  0.00    -0.013 A 
ATOM     25  C   UNL A   1      32.280 -31.863 -29.574  0.00  0.00    -0.040 A 
ATOM     26  C   UNL A   1      31.576 -32.993 -29.127  0.00  0.00    -0.013 A 
ATOM     27  C   UNL A   1      30.187 -32.954 -28.980  0.00  0.00    +0.165 A 
ATOM     28  C   UNL A   1      29.508 -31.758 -29.274  0.00  0.00    +0.204 A 
BRANCH  23  30
ATOM     29  C   UNL A   1      29.485 -28.995 -31.342  0.00  0.00    +0.079 C 
ATOM     30  O   UNL A   1      29.424 -29.525 -30.026  0.00  0.00    -0.491 OA
ENDBRANCH  23  30
BRANCH  27  31
ATOM     31  O   UNL A   1      29.414 -34.002 -28.551  0.00  0.00    -0.491 OA
ATOM     32  C   UNL A   1      30.040 -34.991 -27.746  0.00  0.00    +0.079 C 
ENDBRANCH  27  31
BRANCH  28  33
ATOM     33  O   UNL A   1      28.133 -31.722 -29.173  0.00  0.00    -0.488 OA
ATOM     34  C   UNL A   1      27.549 -32.125 -30.411  0.00  0.00    +0.079 C 
ENDBRANCH  28  33
ENDBRANCH  22  25
ENDBRANCH  21  22
ENDBRANCH   1  21
TORSDOF 8
ENDMDL
MODEL 6
REMARK VINA RESULT:    -7.574     18.126     21.463
REMARK INTER + INTRA:         -12.492
REMARK INTER:                 -11.037
REMARK INTRA:                  -1.455
REMARK UNBOUND:                -1.375
REMARK  Name = cpd80.pdb
REMARK  11 active torsions:
REMARK  status: ('A' for Active; 'I' for Inactive)
REMARK    1  A    between atoms: C_1  and  O_2
REMARK    2  A    between atoms: O_2  and  C_3
REMARK    3  A    between atoms: C_5  and  C_6
REMARK    4  A    between atoms: C_6  and  C_7
REMARK    5  A    between atoms: C_7  and  C_8
REMARK    6  A    between atoms: N_10  and  N_11
REMARK    7  A    between atoms: N_11  and  C_12
REMARK    8  A    between atoms: C_27  and  O_28
REMARK    9  A    between atoms: O_28  and  C_29
REMARK   10  A    between atoms: C_30  and  O_31
REMARK   11  A    between atoms: O_31  and  C_32
REMARK                            x       y       z     vdW  Elec       q    Type
REMARK                         _______ _______ _______ _____ _____    ______ ____
ROOT
ATOM      1  C   UNL A   1      46.783 -19.676 -35.893  0.00  0.00    +0.229 C 
ATOM      2  O   UNL A   1      47.563 -18.749 -35.688  0.00  0.00    -0.274 OA
ATOM      3  N   UNL A   1      46.779 -20.420 -37.058  0.00  0.00    -0.236 N 
ATOM      4  H   UNL A   1      46.236 -21.237 -37.139  0.00  0.00    +0.000 HD
ENDROOT
BRANCH   3   5
ATOM      5  N   UNL A   1      47.582 -19.963 -38.126  0.00  0.00    -0.264 N 
ATOM      6  H   UNL A   1      48.511 -19.645 -38.040  0.00  0.00    +0.000 HD
BRANCH   5   7
ATOM      7  C   UNL A   1      46.848 -20.029 -39.352  0.00  0.00    +0.058 A 
ATOM      8  C   UNL A   1      46.057 -18.943 -39.780  0.00  0.00    -0.003 A 
ATOM      9  C   UNL A   1      45.411 -19.065 -41.012  0.00  0.00    +0.047 A 
ATOM     10  N   UNL A   1      45.560 -20.137 -41.825  0.00  0.00    -0.251 NA
ATOM     11  C   UNL A   1      46.329 -21.158 -41.427  0.00  0.00    +0.073 A 
ATOM     12  C   UNL A   1      46.466 -22.251 -42.275  0.00  0.00    -0.036 A 
ATOM     13  C   UNL A   1      47.237 -23.363 -41.931  0.00  0.00    -0.060 A 
ATOM     14  C   UNL A   1      47.886 -23.395 -40.707  0.00  0.00    -0.061 A 
ATOM     15  C   UNL A   1      47.766 -22.308 -39.841  0.00  0.00    -0.051 A 
ATOM     16  C   UNL A   1      46.999 -21.168 -40.190  0.00  0.00    +0.023 A 
ATOM     17  C   UNL A   1      44.535 -17.969 -41.562  0.00  0.00    -0.010 C 
ATOM     18  C   UNL A   1      44.034 -17.007 -40.491  0.00  0.00    -0.047 C 
ATOM     19  C   UNL A   1      45.204 -16.538 -39.640  0.00  0.00    -0.049 C 
ATOM     20  C   UNL A   1      45.854 -17.718 -38.919  0.00  0.00    -0.024 C 
ENDBRANCH   5   7
ENDBRANCH   3   5
BRANCH   1  21
ATOM     21  C   UNL A   1      45.708 -20.076 -34.914  0.00  0.00    +0.029 C 
BRANCH  21  22
ATOM     22  C   UNL A   1      44.423 -19.317 -35.225  0.00  0.00    -0.019 C 
BRANCH  22  25
ATOM     23  C   UNL A   1      42.276 -21.424 -37.570  0.00  0.00    +0.165 A 
ATOM     24  C   UNL A   1      43.267 -20.563 -37.095  0.00  0.00    -0.013 A 
ATOM     25  C   UNL A   1      43.339 -20.238 -35.731  0.00  0.00    -0.040 A 
ATOM     26  C   UNL A   1      42.413 -20.796 -34.834  0.00  0.00    -0.013 A 
ATOM     27  C   UNL A   1      41.415 -21.661 -35.288  0.00  0.00    +0.165 A 
ATOM     28  C   UNL A   1      41.343 -21.952 -36.662  0.00  0.00    +0.204 A 
BRANCH  23  30
ATOM     29  C   UNL A   1      42.300 -20.796 -39.874  0.00  0.00    +0.079 C 
ATOM     30  O   UNL A   1      42.124 -21.796 -38.882  0.00  0.00    -0.491 OA
ENDBRANCH  23  30
BRANCH  27  31
ATOM     31  O   UNL A   1      40.469 -22.253 -34.492  0.00  0.00    -0.491 OA
ATOM     32  C   UNL A   1      40.894 -22.761 -33.235  0.00  0.00    +0.079 C 
ENDBRANCH  27  31
BRANCH  28  33
ATOM     33  O   UNL A   1      40.388 -22.837 -37.114  0.00  0.00    -0.488 OA
ATOM     34  C   UNL A   1      39.249 -22.117 -37.582  0.00  0.00    +0.079 C 
ENDBRANCH  28  33
ENDBRANCH  22  25
ENDBRANCH  21  22
ENDBRANCH   1  21
TORSDOF 8
ENDMDL
MODEL 7
REMARK VINA RESULT:    -7.510     16.459     19.777
REMARK INTER + INTRA:         -12.398
REMARK INTER:                 -11.456
REMARK INTRA:                  -0.941
REMARK UNBOUND:                -1.375
REMARK  Name = cpd80.pdb
REMARK  11 active torsions:
REMARK  status: ('A' for Active; 'I' for Inactive)
REMARK    1  A    between atoms: C_1  and  O_2
REMARK    2  A    between atoms: O_2  and  C_3
REMARK    3  A    between atoms: C_5  and  C_6
REMARK    4  A    between atoms: C_6  and  C_7
REMARK    5  A    between atoms: C_7  and  C_8
REMARK    6  A    between atoms: N_10  and  N_11
REMARK    7  A    between atoms: N_11  and  C_12
REMARK    8  A    between atoms: C_27  and  O_28
REMARK    9  A    between atoms: O_28  and  C_29
REMARK   10  A    between atoms: C_30  and  O_31
REMARK   11  A    between atoms: O_31  and  C_32
REMARK                            x       y       z     vdW  Elec       q    Type
REMARK                         _______ _______ _______ _____ _____    ______ ____
ROOT
ATOM      1  C   UNL A   1      40.503 -20.165 -38.611  0.00  0.00    +0.229 C 
ATOM      2  O   UNL A   1      40.355 -18.945 -38.630  0.00  0.00    -0.274 OA
ATOM      3  N   UNL A   1      41.633 -20.801 -39.089  0.00  0.00    -0.236 N 
ATOM      4  H   UNL A   1      41.780 -21.762 -38.939  0.00  0.00    +0.000 HD
ENDROOT
BRANCH   3   5
ATOM      5  N   UNL A   1      42.569 -20.017 -39.801  0.00  0.00    -0.264 N 
ATOM      6  H   UNL A   1      42.342 -19.262 -40.391  0.00  0.00    +0.000 HD
BRANCH   5   7
ATOM      7  C   UNL A   1      43.896 -20.483 -39.537  0.00  0.00    +0.058 A 
ATOM      8  C   UNL A   1      44.668 -21.076 -40.556  0.00  0.00    -0.003 A 
ATOM      9  C   UNL A   1      45.972 -21.459 -40.232  0.00  0.00    +0.047 A 
ATOM     10  N   UNL A   1      46.534 -21.231 -39.022  0.00  0.00    -0.251 NA
ATOM     11  C   UNL A   1      45.806 -20.647 -38.062  0.00  0.00    +0.073 A 
ATOM     12  C   UNL A   1      46.400 -20.425 -36.826  0.00  0.00    -0.036 A 
ATOM     13  C   UNL A   1      45.707 -19.835 -35.766  0.00  0.00    -0.060 A 
ATOM     14  C   UNL A   1      44.384 -19.461 -35.937  0.00  0.00    -0.061 A 
ATOM     15  C   UNL A   1      43.768 -19.671 -37.170  0.00  0.00    -0.051 A 
ATOM     16  C   UNL A   1      44.469 -20.253 -38.256  0.00  0.00    +0.023 A 
ATOM     17  C   UNL A   1      46.883 -22.109 -41.242  0.00  0.00    -0.010 C 
ATOM     18  C   UNL A   1      46.132 -22.743 -42.407  0.00  0.00    -0.047 C 
ATOM     19  C   UNL A   1      45.140 -21.743 -42.978  0.00  0.00    -0.049 C 
ATOM     20  C   UNL A   1      44.099 -21.355 -41.927  0.00  0.00    -0.024 C 
ENDBRANCH   5   7
ENDBRANCH   3   5
BRANCH   1  21
ATOM     21  C   UNL A   1      39.443 -21.112 -38.106  0.00  0.00    +0.029 C 
BRANCH  21  22
ATOM     22  C   UNL A   1      40.101 -22.374 -37.561  0.00  0.00    -0.019 C 
BRANCH  22  25
ATOM     23  C   UNL A   1      39.388 -23.242 -33.916  0.00  0.00    +0.165 A 
ATOM     24  C   UNL A   1      39.334 -23.231 -35.312  0.00  0.00    -0.013 A 
ATOM     25  C   UNL A   1      40.157 -22.368 -36.053  0.00  0.00    -0.040 A 
ATOM     26  C   UNL A   1      41.053 -21.517 -35.384  0.00  0.00    -0.013 A 
ATOM     27  C   UNL A   1      41.124 -21.513 -33.989  0.00  0.00    +0.165 A 
ATOM     28  C   UNL A   1      40.272 -22.365 -33.265  0.00  0.00    +0.204 A 
BRANCH  23  30
ATOM     29  C   UNL A   1      37.597 -24.810 -33.724  0.00  0.00    +0.079 C 
ATOM     30  O   UNL A   1      38.624 -24.045 -33.109  0.00  0.00    -0.491 OA
ENDBRANCH  23  30
BRANCH  27  31
ATOM     31  O   UNL A   1      41.963 -20.721 -33.249  0.00  0.00    -0.491 OA
ATOM     32  C   UNL A   1      41.611 -19.353 -33.099  0.00  0.00    +0.079 C 
ENDBRANCH  27  31
BRANCH  28  33
ATOM     33  O   UNL A   1      40.363 -22.400 -31.889  0.00  0.00    -0.488 OA
ATOM     34  C   UNL A   1      41.290 -23.410 -31.495  0.00  0.00    +0.079 C 
ENDBRANCH  28  33
ENDBRANCH  22  25
ENDBRANCH  21  22
ENDBRANCH   1  21
TORSDOF 8
ENDMDL
MODEL 8
REMARK VINA RESULT:    -7.504      4.012      7.049
REMARK INTER + INTRA:         -12.389
REMARK INTER:                 -11.705
REMARK INTRA:                  -0.684
REMARK UNBOUND:                -1.375
REMARK  Name = cpd80.pdb
REMARK  11 active torsions:
REMARK  status: ('A' for Active; 'I' for Inactive)
REMARK    1  A    between atoms: C_1  and  O_2
REMARK    2  A    between atoms: O_2  and  C_3
REMARK    3  A    between atoms: C_5  and  C_6
REMARK    4  A    between atoms: C_6  and  C_7
REMARK    5  A    between atoms: C_7  and  C_8
REMARK    6  A    between atoms: N_10  and  N_11
REMARK    7  A    between atoms: N_11  and  C_12
REMARK    8  A    between atoms: C_27  and  O_28
REMARK    9  A    between atoms: O_28  and  C_29
REMARK   10  A    between atoms: C_30  and  O_31
REMARK   11  A    between atoms: O_31  and  C_32
REMARK                            x       y       z     vdW  Elec       q    Type
REMARK                         _______ _______ _______ _____ _____    ______ ____
ROOT
ATOM      1  C   UNL A   1      34.927 -33.957 -30.901  0.00  0.00    +0.229 C 
ATOM      2  O   UNL A   1      34.108 -34.418 -31.693  0.00  0.00    -0.274 OA
ATOM      3  N   UNL A   1      36.270 -34.281 -30.923  0.00  0.00    -0.236 N 
ATOM      4  H   UNL A   1      36.921 -33.797 -30.366  0.00  0.00    +0.000 HD
ENDROOT
BRANCH   3   5
ATOM      5  N   UNL A   1      36.672 -35.334 -31.774  0.00  0.00    -0.264 N 
ATOM      6  H   UNL A   1      36.360 -35.464 -32.699  0.00  0.00    +0.000 HD
BRANCH   5   7
ATOM      7  C   UNL A   1      37.601 -36.184 -31.095  0.00  0.00    +0.058 A 
ATOM      8  C   UNL A   1      38.990 -36.026 -31.277  0.00  0.00    -0.003 A 
ATOM      9  C   UNL A   1      39.833 -36.861 -30.540  0.00  0.00    +0.047 A 
ATOM     10  N   UNL A   1      39.381 -37.756 -29.629  0.00  0.00    -0.251 NA
ATOM     11  C   UNL A   1      38.062 -37.888 -29.441  0.00  0.00    +0.073 A 
ATOM     12  C   UNL A   1      37.618 -38.814 -28.505  0.00  0.00    -0.036 A 
ATOM     13  C   UNL A   1      36.260 -39.025 -28.258  0.00  0.00    -0.060 A 
ATOM     14  C   UNL A   1      35.314 -38.301 -28.966  0.00  0.00    -0.061 A 
ATOM     15  C   UNL A   1      35.736 -37.364 -29.909  0.00  0.00    -0.051 A 
ATOM     16  C   UNL A   1      37.113 -37.131 -30.153  0.00  0.00    +0.023 A 
ATOM     17  C   UNL A   1      41.333 -36.784 -30.662  0.00  0.00    -0.010 C 
ATOM     18  C   UNL A   1      41.796 -36.126 -31.956  0.00  0.00    -0.047 C 
ATOM     19  C   UNL A   1      41.061 -34.809 -32.149  0.00  0.00    -0.049 C 
ATOM     20  C   UNL A   1      39.556 -35.045 -32.276  0.00  0.00    -0.024 C 
ENDBRANCH   5   7
ENDBRANCH   3   5
BRANCH   1  21
ATOM     21  C   UNL A   1      34.548 -33.019 -29.782  0.00  0.00    +0.029 C 
BRANCH  21  22
ATOM     22  C   UNL A   1      33.890 -31.771 -30.361  0.00  0.00    -0.019 C 
BRANCH  22  25
ATOM     23  C   UNL A   1      30.180 -30.986 -30.777  0.00  0.00    +0.165 A 
ATOM     24  C   UNL A   1      31.566 -30.972 -30.949  0.00  0.00    -0.013 A 
ATOM     25  C   UNL A   1      32.394 -31.784 -30.157  0.00  0.00    -0.040 A 
ATOM     26  C   UNL A   1      31.821 -32.628 -29.192  0.00  0.00    -0.013 A 
ATOM     27  C   UNL A   1      30.437 -32.659 -29.005  0.00  0.00    +0.165 A 
ATOM     28  C   UNL A   1      29.628 -31.818 -29.790  0.00  0.00    +0.204 A 
BRANCH  23  30
ATOM     29  C   UNL A   1      29.385 -28.817 -31.381  0.00  0.00    +0.079 C 
ATOM     30  O   UNL A   1      29.294 -30.229 -31.499  0.00  0.00    -0.491 OA
ENDBRANCH  23  30
BRANCH  27  31
ATOM     31  O   UNL A   1      29.787 -33.447 -28.091  0.00  0.00    -0.491 OA
ATOM     32  C   UNL A   1      30.297 -34.755 -27.873  0.00  0.00    +0.079 C 
ENDBRANCH  27  31
BRANCH  28  33
ATOM     33  O   UNL A   1      28.258 -31.872 -29.642  0.00  0.00    -0.488 OA
ATOM     34  C   UNL A   1      27.845 -30.939 -28.645  0.00  0.00    +0.079 C 
ENDBRANCH  28  33
ENDBRANCH  22  25
ENDBRANCH  21  22
ENDBRANCH   1  21
TORSDOF 8
ENDMDL
MODEL 9
REMARK VINA RESULT:    -7.440      3.927      6.792
REMARK INTER + INTRA:         -12.295
REMARK INTER:                 -11.573
REMARK INTRA:                  -0.722
REMARK UNBOUND:                -1.375
REMARK  Name = cpd80.pdb
REMARK  11 active torsions:
REMARK  status: ('A' for Active; 'I' for Inactive)
REMARK    1  A    between atoms: C_1  and  O_2
REMARK    2  A    between atoms: O_2  and  C_3
REMARK    3  A    between atoms: C_5  and  C_6
REMARK    4  A    between atoms: C_6  and  C_7
REMARK    5  A    between atoms: C_7  and  C_8
REMARK    6  A    between atoms: N_10  and  N_11
REMARK    7  A    between atoms: N_11  and  C_12
REMARK    8  A    between atoms: C_27  and  O_28
REMARK    9  A    between atoms: O_28  and  C_29
REMARK   10  A    between atoms: C_30  and  O_31
REMARK   11  A    between atoms: O_31  and  C_32
REMARK                            x       y       z     vdW  Elec       q    Type
REMARK                         _______ _______ _______ _____ _____    ______ ____
ROOT
ATOM      1  C   UNL A   1      34.898 -33.901 -30.850  0.00  0.00    +0.229 C 
ATOM      2  O   UNL A   1      34.090 -34.343 -31.663  0.00  0.00    -0.274 OA
ATOM      3  N   UNL A   1      36.242 -34.225 -30.863  0.00  0.00    -0.236 N 
ATOM      4  H   UNL A   1      36.886 -33.755 -30.286  0.00  0.00    +0.000 HD
ENDROOT
BRANCH   3   5
ATOM      5  N   UNL A   1      36.655 -35.257 -31.735  0.00  0.00    -0.264 N 
ATOM      6  H   UNL A   1      36.325 -35.387 -32.654  0.00  0.00    +0.000 HD
BRANCH   5   7
ATOM      7  C   UNL A   1      37.623 -36.086 -31.086  0.00  0.00    +0.058 A 
ATOM      8  C   UNL A   1      39.002 -35.818 -31.211  0.00  0.00    -0.003 A 
ATOM      9  C   UNL A   1      39.882 -36.642 -30.506  0.00  0.00    +0.047 A 
ATOM     10  N   UNL A   1      39.471 -37.630 -29.676  0.00  0.00    -0.251 NA
ATOM     11  C   UNL A   1      38.160 -37.868 -29.541  0.00  0.00    +0.073 A 
ATOM     12  C   UNL A   1      37.759 -38.888 -28.687  0.00  0.00    -0.036 A 
ATOM     13  C   UNL A   1      36.413 -39.212 -28.501  0.00  0.00    -0.060 A 
ATOM     14  C   UNL A   1      35.438 -38.507 -29.188  0.00  0.00    -0.061 A 
ATOM     15  C   UNL A   1      35.817 -37.477 -30.048  0.00  0.00    -0.051 A 
ATOM     16  C   UNL A   1      37.179 -37.131 -30.230  0.00  0.00    +0.023 A 
ATOM     17  C   UNL A   1      41.376 -36.451 -30.573  0.00  0.00    -0.010 C 
ATOM     18  C   UNL A   1      41.826 -35.670 -31.802  0.00  0.00    -0.047 C 
ATOM     19  C   UNL A   1      41.003 -34.398 -31.927  0.00  0.00    -0.049 C 
ATOM     20  C   UNL A   1      39.523 -34.730 -32.120  0.00  0.00    -0.024 C 
ENDBRANCH   5   7
ENDBRANCH   3   5
BRANCH   1  21
ATOM     21  C   UNL A   1      34.505 -32.991 -29.714  0.00  0.00    +0.029 C 
BRANCH  21  22
ATOM     22  C   UNL A   1      33.774 -31.772 -30.263  0.00  0.00    -0.019 C 
BRANCH  22  25
ATOM     23  C   UNL A   1      30.395 -32.865 -28.871  0.00  0.00    +0.165 A 
ATOM     24  C   UNL A   1      31.769 -32.784 -29.105  0.00  0.00    -0.013 A 
ATOM     25  C   UNL A   1      32.285 -31.861 -30.029  0.00  0.00    -0.040 A 
ATOM     26  C   UNL A   1      31.411 -31.002 -30.715  0.00  0.00    -0.013 A 
ATOM     27  C   UNL A   1      30.032 -31.065 -30.495  0.00  0.00    +0.165 A 
ATOM     28  C   UNL A   1      29.534 -32.015 -29.586  0.00  0.00    +0.204 A 
BRANCH  23  30
ATOM     29  C   UNL A   1      29.887 -35.122 -28.278  0.00  0.00    +0.079 C 
ATOM     30  O   UNL A   1      29.800 -33.733 -27.992  0.00  0.00    -0.491 OA
ENDBRANCH  23  30
BRANCH  27  31
ATOM     31  O   UNL A   1      29.103 -30.272 -31.115  0.00  0.00    -0.491 OA
ATOM     32  C   UNL A   1      29.442 -28.909 -31.330  0.00  0.00    +0.079 C 
ENDBRANCH  27  31
BRANCH  28  33
ATOM     33  O   UNL A   1      28.180 -32.058 -29.330  0.00  0.00    -0.488 OA
ATOM     34  C   UNL A   1      27.544 -32.937 -30.255  0.00  0.00    +0.079 C 
ENDBRANCH  28  33
ENDBRANCH  22  25
ENDBRANCH  21  22
ENDBRANCH   1  21
TORSDOF 8
ENDMDL
MODEL 10
REMARK VINA RESULT:    -7.350     18.310     21.588
REMARK INTER + INTRA:         -12.163
REMARK INTER:                 -10.825
REMARK INTRA:                  -1.337
REMARK UNBOUND:                -1.375
REMARK  Name = cpd80.pdb
REMARK  11 active torsions:
REMARK  status: ('A' for Active; 'I' for Inactive)
REMARK    1  A    between atoms: C_1  and  O_2
REMARK    2  A    between atoms: O_2  and  C_3
REMARK    3  A    between atoms: C_5  and  C_6
REMARK    4  A    between atoms: C_6  and  C_7
REMARK    5  A    between atoms: C_7  and  C_8
REMARK    6  A    between atoms: N_10  and  N_11
REMARK    7  A    between atoms: N_11  and  C_12
REMARK    8  A    between atoms: C_27  and  O_28
REMARK    9  A    between atoms: O_28  and  C_29
REMARK   10  A    between atoms: C_30  and  O_31
REMARK   11  A    between atoms: O_31  and  C_32
REMARK                            x       y       z     vdW  Elec       q    Type
REMARK                         _______ _______ _______ _____ _____    ______ ____
ROOT
ATOM      1  C   UNL A   1      46.774 -19.430 -36.500  0.00  0.00    +0.229 C 
ATOM      2  O   UNL A   1      47.318 -18.331 -36.422  0.00  0.00    -0.274 OA
ATOM      3  N   UNL A   1      46.962 -20.297 -37.560  0.00  0.00    -0.236 N 
ATOM      4  H   UNL A   1      46.621 -21.219 -37.531  0.00  0.00    +0.000 HD
ENDROOT
BRANCH   3   5
ATOM      5  N   UNL A   1      47.661 -19.807 -38.686  0.00  0.00    -0.264 N 
ATOM      6  H   UNL A   1      48.538 -19.359 -38.656  0.00  0.00    +0.000 HD
BRANCH   5   7
ATOM      7  C   UNL A   1      46.909 -20.060 -39.876  0.00  0.00    +0.058 A 
ATOM      8  C   UNL A   1      47.041 -21.282 -40.567  0.00  0.00    -0.003 A 
ATOM      9  C   UNL A   1      46.235 -21.473 -41.692  0.00  0.00    +0.047 A 
ATOM     10  N   UNL A   1      45.306 -20.577 -42.101  0.00  0.00    -0.251 NA
ATOM     11  C   UNL A   1      45.166 -19.427 -41.429  0.00  0.00    +0.073 A 
ATOM     12  C   UNL A   1      44.210 -18.519 -41.867  0.00  0.00    -0.036 A 
ATOM     13  C   UNL A   1      44.009 -17.291 -41.233  0.00  0.00    -0.060 A 
ATOM     14  C   UNL A   1      44.786 -16.951 -40.136  0.00  0.00    -0.061 A 
ATOM     15  C   UNL A   1      45.750 -17.848 -39.678  0.00  0.00    -0.051 A 
ATOM     16  C   UNL A   1      45.948 -19.103 -40.304  0.00  0.00    +0.023 A 
ATOM     17  C   UNL A   1      46.300 -22.737 -42.510  0.00  0.00    -0.010 C 
ATOM     18  C   UNL A   1      47.601 -23.507 -42.322  0.00  0.00    -0.047 C 
ATOM     19  C   UNL A   1      47.880 -23.681 -40.837  0.00  0.00    -0.049 C 
ATOM     20  C   UNL A   1      48.058 -22.322 -40.160  0.00  0.00    -0.024 C 
ENDBRANCH   5   7
ENDBRANCH   3   5
BRANCH   1  21
ATOM     21  C   UNL A   1      45.799 -19.937 -35.468  0.00  0.00    +0.029 C 
BRANCH  21  22
ATOM     22  C   UNL A   1      44.583 -19.019 -35.416  0.00  0.00    -0.019 C 
BRANCH  22  25
ATOM     23  C   UNL A   1      40.971 -20.244 -35.411  0.00  0.00    +0.165 A 
ATOM     24  C   UNL A   1      42.150 -19.588 -35.047  0.00  0.00    -0.013 A 
ATOM     25  C   UNL A   1      43.319 -19.743 -35.810  0.00  0.00    -0.040 A 
ATOM     26  C   UNL A   1      43.298 -20.554 -36.956  0.00  0.00    -0.013 A 
ATOM     27  C   UNL A   1      42.130 -21.217 -37.339  0.00  0.00    +0.165 A 
ATOM     28  C   UNL A   1      40.978 -21.071 -36.546  0.00  0.00    +0.204 A 
BRANCH  23  30
ATOM     29  C   UNL A   1      39.752 -20.647 -33.397  0.00  0.00    +0.079 C 
ATOM     30  O   UNL A   1      39.784 -20.156 -34.729  0.00  0.00    -0.491 OA
ENDBRANCH  23  30
BRANCH  27  31
ATOM     31  O   UNL A   1      42.012 -22.028 -38.437  0.00  0.00    -0.491 OA
ATOM     32  C   UNL A   1      42.502 -21.530 -39.675  0.00  0.00    +0.079 C 
ENDBRANCH  27  31
BRANCH  28  33
ATOM     33  O   UNL A   1      39.808 -21.687 -36.937  0.00  0.00    -0.488 OA
ATOM     34  C   UNL A   1      39.724 -22.981 -36.343  0.00  0.00    +0.079 C 
ENDBRANCH  28  33
ENDBRANCH  22  25
ENDBRANCH  21  22
ENDBRANCH   1  21
TORSDOF 8
ENDMDL
MODEL 11
REMARK VINA RESULT:    -7.349     16.378     19.778
REMARK INTER + INTRA:         -12.161
REMARK INTER:                 -11.216
REMARK INTRA:                  -0.945
REMARK UNBOUND:                -1.375
REMARK  Name = cpd80.pdb
REMARK  11 active torsions:
REMARK  status: ('A' for Active; 'I' for Inactive)
REMARK    1  A    between atoms: C_1  and  O_2
REMARK    2  A    between atoms: O_2  and  C_3
REMARK    3  A    between atoms: C_5  and  C_6
REMARK    4  A    between atoms: C_6  and  C_7
REMARK    5  A    between atoms: C_7  and  C_8
REMARK    6  A    between atoms: N_10  and  N_11
REMARK    7  A    between atoms: N_11  and  C_12
REMARK    8  A    between atoms: C_27  and  O_28
REMARK    9  A    between atoms: O_28  and  C_29
REMARK   10  A    between atoms: C_30  and  O_31
REMARK   11  A    between atoms: O_31  and  C_32
REMARK                            x       y       z     vdW  Elec       q    Type
REMARK                         _______ _______ _______ _____ _____    ______ ____
ROOT
ATOM      1  C   UNL A   1      41.235 -21.794 -39.686  0.00  0.00    +0.229 C 
ATOM      2  O   UNL A   1      41.265 -21.986 -40.899  0.00  0.00    -0.274 OA
ATOM      3  N   UNL A   1      41.935 -20.780 -39.061  0.00  0.00    -0.236 N 
ATOM      4  H   UNL A   1      41.787 -20.568 -38.111  0.00  0.00    +0.000 HD
ENDROOT
BRANCH   3   5
ATOM      5  N   UNL A   1      42.870 -20.059 -39.837  0.00  0.00    -0.264 N 
ATOM      6  H   UNL A   1      42.640 -19.387 -40.519  0.00  0.00    +0.000 HD
BRANCH   5   7
ATOM      7  C   UNL A   1      44.201 -20.449 -39.484  0.00  0.00    +0.058 A 
ATOM      8  C   UNL A   1      44.711 -20.189 -38.196  0.00  0.00    -0.003 A 
ATOM      9  C   UNL A   1      46.000 -20.645 -37.913  0.00  0.00    +0.047 A 
ATOM     10  N   UNL A   1      46.741 -21.368 -38.786  0.00  0.00    -0.251 NA
ATOM     11  C   UNL A   1      46.245 -21.634 -40.000  0.00  0.00    +0.073 A 
ATOM     12  C   UNL A   1      47.022 -22.373 -40.884  0.00  0.00    -0.036 A 
ATOM     13  C   UNL A   1      46.587 -22.682 -42.174  0.00  0.00    -0.060 A 
ATOM     14  C   UNL A   1      45.346 -22.237 -42.603  0.00  0.00    -0.061 A 
ATOM     15  C   UNL A   1      44.548 -21.496 -41.733  0.00  0.00    -0.051 A 
ATOM     16  C   UNL A   1      44.975 -21.193 -40.416  0.00  0.00    +0.023 A 
ATOM     17  C   UNL A   1      46.648 -20.416 -36.571  0.00  0.00    -0.010 C 
ATOM     18  C   UNL A   1      46.020 -19.267 -35.791  0.00  0.00    -0.047 C 
ATOM     19  C   UNL A   1      44.509 -19.437 -35.761  0.00  0.00    -0.049 C 
ATOM     20  C   UNL A   1      43.933 -19.390 -37.177  0.00  0.00    -0.024 C 
ENDBRANCH   5   7
ENDBRANCH   3   5
BRANCH   1  21
ATOM     21  C   UNL A   1      40.467 -22.677 -38.734  0.00  0.00    +0.029 C 
BRANCH  21  22
ATOM     22  C   UNL A   1      39.556 -21.820 -37.862  0.00  0.00    -0.019 C 
BRANCH  22  25
ATOM     23  C   UNL A   1      39.373 -23.348 -34.373  0.00  0.00    +0.165 A 
ATOM     24  C   UNL A   1      39.143 -23.109 -35.729  0.00  0.00    -0.013 A 
ATOM     25  C   UNL A   1      39.801 -22.061 -36.393  0.00  0.00    -0.040 A 
ATOM     26  C   UNL A   1      40.709 -21.254 -35.688  0.00  0.00    -0.013 A 
ATOM     27  C   UNL A   1      40.955 -21.477 -34.330  0.00  0.00    +0.165 A 
ATOM     28  C   UNL A   1      40.265 -22.514 -33.679  0.00  0.00    +0.204 A 
BRANCH  23  30
ATOM     29  C   UNL A   1      37.359 -24.418 -33.663  0.00  0.00    +0.079 C 
ATOM     30  O   UNL A   1      38.777 -24.343 -33.641  0.00  0.00    -0.491 OA
ENDBRANCH  23  30
BRANCH  27  31
ATOM     31  O   UNL A   1      41.820 -20.744 -33.560  0.00  0.00    -0.491 OA
ATOM     32  C   UNL A   1      41.547 -19.359 -33.403  0.00  0.00    +0.079 C 
ENDBRANCH  27  31
BRANCH  28  33
ATOM     33  O   UNL A   1      40.531 -22.770 -32.350  0.00  0.00    -0.488 OA
ATOM     34  C   UNL A   1      41.425 -23.876 -32.243  0.00  0.00    +0.079 C 
ENDBRANCH  28  33
ENDBRANCH  22  25
ENDBRANCH  21  22
ENDBRANCH   1  21
TORSDOF 8
ENDMDL
MODEL 12
REMARK VINA RESULT:    -7.333     18.370     21.533
REMARK INTER + INTRA:         -12.137
REMARK INTER:                 -10.802
REMARK INTRA:                  -1.335
REMARK UNBOUND:                -1.375
REMARK  Name = cpd80.pdb
REMARK  11 active torsions:
REMARK  status: ('A' for Active; 'I' for Inactive)
REMARK    1  A    between atoms: C_1  and  O_2
REMARK    2  A    between atoms: O_2  and  C_3
REMARK    3  A    between atoms: C_5  and  C_6
REMARK    4  A    between atoms: C_6  and  C_7
REMARK    5  A    between atoms: C_7  and  C_8
REMARK    6  A    between atoms: N_10  and  N_11
REMARK    7  A    between atoms: N_11  and  C_12
REMARK    8  A    between atoms: C_27  and  O_28
REMARK    9  A    between atoms: O_28  and  C_29
REMARK   10  A    between atoms: C_30  and  O_31
REMARK   11  A    between atoms: O_31  and  C_32
REMARK                            x       y       z     vdW  Elec       q    Type
REMARK                         _______ _______ _______ _____ _____    ______ ____
ROOT
ATOM      1  C   UNL A   1      46.631 -19.110 -36.546  0.00  0.00    +0.229 C 
ATOM      2  O   UNL A   1      47.085 -17.969 -36.504  0.00  0.00    -0.274 OA
ATOM      3  N   UNL A   1      46.876 -19.986 -37.586  0.00  0.00    -0.236 N 
ATOM      4  H   UNL A   1      46.612 -20.932 -37.530  0.00  0.00    +0.000 HD
ENDROOT
BRANCH   3   5
ATOM      5  N   UNL A   1      47.519 -19.471 -38.734  0.00  0.00    -0.264 N 
ATOM      6  H   UNL A   1      48.418 -19.068 -38.746  0.00  0.00    +0.000 HD
BRANCH   5   7
ATOM      7  C   UNL A   1      46.672 -19.621 -39.877  0.00  0.00    +0.058 A 
ATOM      8  C   UNL A   1      46.607 -20.847 -40.571  0.00  0.00    -0.003 A 
ATOM      9  C   UNL A   1      45.718 -20.930 -41.645  0.00  0.00    +0.047 A 
ATOM     10  N   UNL A   1      44.889 -19.922 -42.002  0.00  0.00    -0.251 NA
ATOM     11  C   UNL A   1      44.936 -18.766 -41.328  0.00  0.00    +0.073 A 
ATOM     12  C   UNL A   1      44.079 -17.742 -41.712  0.00  0.00    -0.036 A 
ATOM     13  C   UNL A   1      44.074 -16.501 -41.072  0.00  0.00    -0.060 A 
ATOM     14  C   UNL A   1      44.950 -16.267 -40.025  0.00  0.00    -0.061 A 
ATOM     15  C   UNL A   1      45.817 -17.280 -39.620  0.00  0.00    -0.051 A 
ATOM     16  C   UNL A   1      45.817 -18.549 -40.252  0.00  0.00    +0.023 A 
ATOM     17  C   UNL A   1      45.573 -22.189 -42.461  0.00  0.00    -0.010 C 
ATOM     18  C   UNL A   1      46.775 -23.120 -42.346  0.00  0.00    -0.047 C 
ATOM     19  C   UNL A   1      47.116 -23.333 -40.880  0.00  0.00    -0.049 C 
ATOM     20  C   UNL A   1      47.505 -22.010 -40.219  0.00  0.00    -0.024 C 
ENDBRANCH   5   7
ENDBRANCH   3   5
BRANCH   1  21
ATOM     21  C   UNL A   1      45.714 -19.668 -35.487  0.00  0.00    +0.029 C 
BRANCH  21  22
ATOM     22  C   UNL A   1      44.334 -19.034 -35.619  0.00  0.00    -0.019 C 
BRANCH  22  25
ATOM     23  C   UNL A   1      42.301 -21.632 -37.533  0.00  0.00    +0.165 A 
ATOM     24  C   UNL A   1      43.266 -20.673 -37.218  0.00  0.00    -0.013 A 
ATOM     25  C   UNL A   1      43.278 -20.059 -35.955  0.00  0.00    -0.040 A 
ATOM     26  C   UNL A   1      42.319 -20.424 -34.996  0.00  0.00    -0.013 A 
ATOM     27  C   UNL A   1      41.346 -21.383 -35.290  0.00  0.00    +0.165 A 
ATOM     28  C   UNL A   1      41.335 -21.965 -36.570  0.00  0.00    +0.204 A 
BRANCH  23  30
ATOM     29  C   UNL A   1      42.340 -21.504 -39.918  0.00  0.00    +0.079 C 
ATOM     30  O   UNL A   1      42.208 -22.282 -38.738  0.00  0.00    -0.491 OA
ENDBRANCH  23  30
BRANCH  27  31
ATOM     31  O   UNL A   1      40.372 -21.803 -34.423  0.00  0.00    -0.491 OA
ATOM     32  C   UNL A   1      40.292 -21.153 -33.162  0.00  0.00    +0.079 C 
ENDBRANCH  27  31
BRANCH  28  33
ATOM     33  O   UNL A   1      40.405 -22.942 -36.857  0.00  0.00    -0.488 OA
ATOM     34  C   UNL A   1      39.259 -22.351 -37.466  0.00  0.00    +0.079 C 
ENDBRANCH  28  33
ENDBRANCH  22  25
ENDBRANCH  21  22
ENDBRANCH   1  21
TORSDOF 8
ENDMDL
MODEL 13
REMARK VINA RESULT:    -7.327     16.375     19.870
REMARK INTER + INTRA:         -12.129
REMARK INTER:                 -11.519
REMARK INTRA:                  -0.611
REMARK UNBOUND:                -1.375
REMARK  Name = cpd80.pdb
REMARK  11 active torsions:
REMARK  status: ('A' for Active; 'I' for Inactive)
REMARK    1  A    between atoms: C_1  and  O_2
REMARK    2  A    between atoms: O_2  and  C_3
REMARK    3  A    between atoms: C_5  and  C_6
REMARK    4  A    between atoms: C_6  and  C_7
REMARK    5  A    between atoms: C_7  and  C_8
REMARK    6  A    between atoms: N_10  and  N_11
REMARK    7  A    between atoms: N_11  and  C_12
REMARK    8  A    between atoms: C_27  and  O_28
REMARK    9  A    between atoms: O_28  and  C_29
REMARK   10  A    between atoms: C_30  and  O_31
REMARK   11  A    between atoms: O_31  and  C_32
REMARK                            x       y       z     vdW  Elec       q    Type
REMARK                         _______ _______ _______ _____ _____    ______ ____
ROOT
ATOM      1  C   UNL A   1      40.962 -21.224 -39.074  0.00  0.00    +0.229 C 
ATOM      2  O   UNL A   1      40.459 -20.171 -39.457  0.00  0.00    -0.274 OA
ATOM      3  N   UNL A   1      42.286 -21.556 -39.292  0.00  0.00    -0.236 N 
ATOM      4  H   UNL A   1      42.693 -22.341 -38.860  0.00  0.00    +0.000 HD
ENDROOT
BRANCH   3   5
ATOM      5  N   UNL A   1      43.032 -20.727 -40.159  0.00  0.00    -0.264 N 
ATOM      6  H   UNL A   1      42.656 -20.209 -40.909  0.00  0.00    +0.000 HD
BRANCH   5   7
ATOM      7  C   UNL A   1      44.413 -20.748 -39.787  0.00  0.00    +0.058 A 
ATOM      8  C   UNL A   1      44.836 -20.212 -38.554  0.00  0.00    -0.003 A 
ATOM      9  C   UNL A   1      46.194 -20.316 -38.241  0.00  0.00    +0.047 A 
ATOM     10  N   UNL A   1      47.090 -20.954 -39.030  0.00  0.00    -0.251 NA
ATOM     11  C   UNL A   1      46.682 -21.482 -40.190  0.00  0.00    +0.073 A 
ATOM     12  C   UNL A   1      47.618 -22.129 -40.987  0.00  0.00    -0.036 A 
ATOM     13  C   UNL A   1      47.279 -22.695 -42.218  0.00  0.00    -0.060 A 
ATOM     14  C   UNL A   1      45.974 -22.610 -42.675  0.00  0.00    -0.061 A 
ATOM     15  C   UNL A   1      45.016 -21.968 -41.891  0.00  0.00    -0.051 A 
ATOM     16  C   UNL A   1      45.348 -21.407 -40.633  0.00  0.00    +0.023 A 
ATOM     17  C   UNL A   1      46.757 -19.771 -36.954  0.00  0.00    -0.010 C 
ATOM     18  C   UNL A   1      45.871 -18.709 -36.315  0.00  0.00    -0.047 C 
ATOM     19  C   UNL A   1      44.441 -19.220 -36.232  0.00  0.00    -0.049 C 
ATOM     20  C   UNL A   1      43.884 -19.491 -37.630  0.00  0.00    -0.024 C 
ENDBRANCH   5   7
ENDBRANCH   3   5
BRANCH   1  21
ATOM     21  C   UNL A   1      40.177 -22.297 -38.362  0.00  0.00    +0.029 C 
BRANCH  21  22
ATOM     22  C   UNL A   1      39.213 -21.655 -37.372  0.00  0.00    -0.019 C 
BRANCH  22  25
ATOM     23  C   UNL A   1      40.635 -21.670 -33.833  0.00  0.00    +0.165 A 
ATOM     24  C   UNL A   1      40.365 -21.299 -35.152  0.00  0.00    -0.013 A 
ATOM     25  C   UNL A   1      39.509 -22.073 -35.952  0.00  0.00    -0.040 A 
ATOM     26  C   UNL A   1      38.909 -23.224 -35.416  0.00  0.00    -0.013 A 
ATOM     27  C   UNL A   1      39.165 -23.612 -34.099  0.00  0.00    +0.165 A 
ATOM     28  C   UNL A   1      40.046 -22.838 -33.323  0.00  0.00    +0.204 A 
BRANCH  23  30
ATOM     29  C   UNL A   1      41.123 -19.631 -32.688  0.00  0.00    +0.079 C 
ATOM     30  O   UNL A   1      41.457 -20.980 -32.978  0.00  0.00    -0.491 OA
ENDBRANCH  23  30
BRANCH  27  31
ATOM     31  O   UNL A   1      38.629 -24.716 -33.489  0.00  0.00    -0.491 OA
ATOM     32  C   UNL A   1      37.279 -25.041 -33.791  0.00  0.00    +0.079 C 
ENDBRANCH  27  31
BRANCH  28  33
ATOM     33  O   UNL A   1      40.273 -23.189 -32.009  0.00  0.00    -0.488 OA
ATOM     34  C   UNL A   1      41.358 -24.112 -31.938  0.00  0.00    +0.079 C 
ENDBRANCH  28  33
ENDBRANCH  22  25
ENDBRANCH  21  22
ENDBRANCH   1  21
TORSDOF 8
ENDMDL
MODEL 14
REMARK VINA RESULT:    -7.174     16.645     20.013
REMARK INTER + INTRA:         -11.905
REMARK INTER:                 -10.999
REMARK INTRA:                  -0.906
REMARK UNBOUND:                -1.375
REMARK  Name = cpd80.pdb
REMARK  11 active torsions:
REMARK  status: ('A' for Active; 'I' for Inactive)
REMARK    1  A    between atoms: C_1  and  O_2
REMARK    2  A    between atoms: O_2  and  C_3
REMARK    3  A    between atoms: C_5  and  C_6
REMARK    4  A    between atoms: C_6  and  C_7
REMARK    5  A    between atoms: C_7  and  C_8
REMARK    6  A    between atoms: N_10  and  N_11
REMARK    7  A    between atoms: N_11  and  C_12
REMARK    8  A    between atoms: C_27  and  O_28
REMARK    9  A    between atoms: O_28  and  C_29
REMARK   10  A    between atoms: C_30  and  O_31
REMARK   11  A    between atoms: O_31  and  C_32
REMARK                            x       y       z     vdW  Elec       q    Type
REMARK                         _______ _______ _______ _____ _____    ______ ____
ROOT
ATOM      1  C   UNL A   1      41.478 -21.729 -39.538  0.00  0.00    +0.229 C 
ATOM      2  O   UNL A   1      41.287 -21.800 -40.750  0.00  0.00    -0.274 OA
ATOM      3  N   UNL A   1      42.328 -20.808 -38.956  0.00  0.00    -0.236 N 
ATOM      4  H   UNL A   1      42.358 -20.687 -37.980  0.00  0.00    +0.000 HD
ENDROOT
BRANCH   3   5
ATOM      5  N   UNL A   1      43.152 -20.048 -39.816  0.00  0.00    -0.264 N 
ATOM      6  H   UNL A   1      42.827 -19.424 -40.506  0.00  0.00    +0.000 HD
BRANCH   5   7
ATOM      7  C   UNL A   1      44.529 -20.318 -39.537  0.00  0.00    +0.058 A 
ATOM      8  C   UNL A   1      45.298 -21.119 -40.407  0.00  0.00    -0.003 A 
ATOM      9  C   UNL A   1      46.647 -21.295 -40.092  0.00  0.00    +0.047 A 
ATOM     10  N   UNL A   1      47.250 -20.688 -39.042  0.00  0.00    -0.251 NA
ATOM     11  C   UNL A   1      46.523 -19.910 -38.231  0.00  0.00    +0.073 A 
ATOM     12  C   UNL A   1      47.159 -19.300 -37.157  0.00  0.00    -0.036 A 
ATOM     13  C   UNL A   1      46.473 -18.484 -36.255  0.00  0.00    -0.060 A 
ATOM     14  C   UNL A   1      45.113 -18.274 -36.420  0.00  0.00    -0.061 A 
ATOM     15  C   UNL A   1      44.454 -18.874 -37.492  0.00  0.00    -0.051 A 
ATOM     16  C   UNL A   1      45.147 -19.688 -38.422  0.00  0.00    +0.023 A 
ATOM     17  C   UNL A   1      47.559 -22.137 -40.947  0.00  0.00    -0.010 C 
ATOM     18  C   UNL A   1      46.809 -23.132 -41.824  0.00  0.00    -0.047 C 
ATOM     19  C   UNL A   1      45.698 -22.414 -42.573  0.00  0.00    -0.049 C 
ATOM     20  C   UNL A   1      44.684 -21.821 -41.595  0.00  0.00    -0.024 C 
ENDBRANCH   5   7
ENDBRANCH   3   5
BRANCH   1  21
ATOM     21  C   UNL A   1      40.840 -22.673 -38.551  0.00  0.00    +0.029 C 
BRANCH  21  22
ATOM     22  C   UNL A   1      39.762 -21.938 -37.762  0.00  0.00    -0.019 C 
BRANCH  22  25
ATOM     23  C   UNL A   1      40.924 -21.344 -34.178  0.00  0.00    +0.165 A 
ATOM     24  C   UNL A   1      40.756 -21.206 -35.557  0.00  0.00    -0.013 A 
ATOM     25  C   UNL A   1      39.948 -22.105 -36.273  0.00  0.00    -0.040 A 
ATOM     26  C   UNL A   1      39.293 -23.144 -35.592  0.00  0.00    -0.013 A 
ATOM     27  C   UNL A   1      39.447 -23.299 -34.212  0.00  0.00    +0.165 A 
ATOM     28  C   UNL A   1      40.281 -22.405 -33.519  0.00  0.00    +0.204 A 
BRANCH  23  30
ATOM     29  C   UNL A   1      42.974 -20.154 -33.887  0.00  0.00    +0.079 C 
ATOM     30  O   UNL A   1      41.693 -20.520 -33.396  0.00  0.00    -0.491 OA
ENDBRANCH  23  30
BRANCH  27  31
ATOM     31  O   UNL A   1      38.850 -24.279 -33.462  0.00  0.00    -0.491 OA
ATOM     32  C   UNL A   1      37.686 -24.895 -33.995  0.00  0.00    +0.079 C 
ENDBRANCH  27  31
BRANCH  28  33
ATOM     33  O   UNL A   1      40.407 -22.523 -32.151  0.00  0.00    -0.488 OA
ATOM     34  C   UNL A   1      41.441 -23.455 -31.842  0.00  0.00    +0.079 C 
ENDBRANCH  28  33
ENDBRANCH  22  25
ENDBRANCH  21  22
ENDBRANCH   1  21
TORSDOF 8
ENDMDL
MODEL 15
REMARK VINA RESULT:    -7.074      4.275      7.478
REMARK INTER + INTRA:         -11.757
REMARK INTER:                 -11.086
REMARK INTRA:                  -0.671
REMARK UNBOUND:                -1.375
REMARK  Name = cpd80.pdb
REMARK  11 active torsions:
REMARK  status: ('A' for Active; 'I' for Inactive)
REMARK    1  A    between atoms: C_1  and  O_2
REMARK    2  A    between atoms: O_2  and  C_3
REMARK    3  A    between atoms: C_5  and  C_6
REMARK    4  A    between atoms: C_6  and  C_7
REMARK    5  A    between atoms: C_7  and  C_8
REMARK    6  A    between atoms: N_10  and  N_11
REMARK    7  A    between atoms: N_11  and  C_12
REMARK    8  A    between atoms: C_27  and  O_28
REMARK    9  A    between atoms: O_28  and  C_29
REMARK   10  A    between atoms: C_30  and  O_31
REMARK   11  A    between atoms: O_31  and  C_32
REMARK                            x       y       z     vdW  Elec       q    Type
REMARK                         _______ _______ _______ _____ _____    ______ ____
ROOT
ATOM      1  C   UNL A   1      34.554 -33.615 -31.084  0.00  0.00    +0.229 C 
ATOM      2  O   UNL A   1      33.896 -33.919 -32.075  0.00  0.00    -0.274 OA
ATOM      3  N   UNL A   1      35.844 -34.060 -30.863  0.00  0.00    -0.236 N 
ATOM      4  H   UNL A   1      36.392 -33.694 -30.132  0.00  0.00    +0.000 HD
ENDROOT
BRANCH   3   5
ATOM      5  N   UNL A   1      36.345 -35.060 -31.726  0.00  0.00    -0.264 N 
ATOM      6  H   UNL A   1      36.113 -35.153 -32.679  0.00  0.00    +0.000 HD
BRANCH   5   7
ATOM      7  C   UNL A   1      37.239 -35.918 -31.011  0.00  0.00    +0.058 A 
ATOM      8  C   UNL A   1      36.751 -37.027 -30.290  0.00  0.00    -0.003 A 
ATOM      9  C   UNL A   1      37.691 -37.846 -29.660  0.00  0.00    +0.047 A 
ATOM     10  N   UNL A   1      39.028 -37.658 -29.764  0.00  0.00    -0.251 NA
ATOM     11  C   UNL A   1      39.489 -36.618 -30.469  0.00  0.00    +0.073 A 
ATOM     12  C   UNL A   1      40.864 -36.440 -30.561  0.00  0.00    -0.036 A 
ATOM     13  C   UNL A   1      41.428 -35.373 -31.264  0.00  0.00    -0.060 A 
ATOM     14  C   UNL A   1      40.603 -34.451 -31.888  0.00  0.00    -0.061 A 
ATOM     15  C   UNL A   1      39.220 -34.611 -31.811  0.00  0.00    -0.051 A 
ATOM     16  C   UNL A   1      38.640 -35.701 -31.115  0.00  0.00    +0.023 A 
ATOM     17  C   UNL A   1      37.282 -39.053 -28.856  0.00  0.00    -0.010 C 
ATOM     18  C   UNL A   1      35.832 -38.999 -28.389  0.00  0.00    -0.047 C 
ATOM     19  C   UNL A   1      34.930 -38.668 -29.567  0.00  0.00    -0.049 C 
ATOM     20  C   UNL A   1      35.272 -37.292 -30.138  0.00  0.00    -0.024 C 
ENDBRANCH   5   7
ENDBRANCH   3   5
BRANCH   1  21
ATOM     21  C   UNL A   1      34.010 -32.756 -29.969  0.00  0.00    +0.029 C 
BRANCH  21  22
ATOM     22  C   UNL A   1      33.370 -31.502 -30.554  0.00  0.00    -0.019 C 
BRANCH  22  25
ATOM     23  C   UNL A   1      29.826 -32.708 -29.826  0.00  0.00    +0.165 A 
ATOM     24  C   UNL A   1      31.213 -32.688 -29.985  0.00  0.00    -0.013 A 
ATOM     25  C   UNL A   1      31.869 -31.517 -30.399  0.00  0.00    -0.040 A 
ATOM     26  C   UNL A   1      31.123 -30.352 -30.643  0.00  0.00    -0.013 A 
ATOM     27  C   UNL A   1      29.734 -30.351 -30.488  0.00  0.00    +0.165 A 
ATOM     28  C   UNL A   1      29.095 -31.540 -30.099  0.00  0.00    +0.204 A 
BRANCH  23  30
ATOM     29  C   UNL A   1      29.249 -34.240 -28.087  0.00  0.00    +0.079 C 
ATOM     30  O   UNL A   1      29.099 -33.801 -29.429  0.00  0.00    -0.491 OA
ENDBRANCH  23  30
BRANCH  27  31
ATOM     31  O   UNL A   1      28.924 -29.267 -30.703  0.00  0.00    -0.491 OA
ATOM     32  C   UNL A   1      28.863 -28.743 -32.022  0.00  0.00    +0.079 C 
ENDBRANCH  27  31
BRANCH  28  33
ATOM     33  O   UNL A   1      27.730 -31.538 -29.903  0.00  0.00    -0.488 OA
ATOM     34  C   UNL A   1      27.071 -31.940 -31.103  0.00  0.00    +0.079 C 
ENDBRANCH  28  33
ENDBRANCH  22  25
ENDBRANCH  21  22
ENDBRANCH   1  21
TORSDOF 8
ENDMDL
MODEL 16
REMARK VINA RESULT:    -6.972     20.579     22.831
REMARK INTER + INTRA:         -11.608
REMARK INTER:                  -9.239
REMARK INTRA:                  -2.369
REMARK UNBOUND:                -1.375
REMARK  Name = cpd80.pdb
REMARK  11 active torsions:
REMARK  status: ('A' for Active; 'I' for Inactive)
REMARK    1  A    between atoms: C_1  and  O_2
REMARK    2  A    between atoms: O_2  and  C_3
REMARK    3  A    between atoms: C_5  and  C_6
REMARK    4  A    between atoms: C_6  and  C_7
REMARK    5  A    between atoms: C_7  and  C_8
REMARK    6  A    between atoms: N_10  and  N_11
REMARK    7  A    between atoms: N_11  and  C_12
REMARK    8  A    between atoms: C_27  and  O_28
REMARK    9  A    between atoms: O_28  and  C_29
REMARK   10  A    between atoms: C_30  and  O_31
REMARK   11  A    between atoms: O_31  and  C_32
REMARK                            x       y       z     vdW  Elec       q    Type
REMARK                         _______ _______ _______ _____ _____    ______ ____
ROOT
ATOM      1  C   UNL A   1      46.857 -18.908 -36.554  0.00  0.00    +0.229 C 
ATOM      2  O   UNL A   1      47.513 -17.869 -36.558  0.00  0.00    -0.274 OA
ATOM      3  N   UNL A   1      46.922 -19.851 -37.563  0.00  0.00    -0.236 N 
ATOM      4  H   UNL A   1      46.491 -20.730 -37.470  0.00  0.00    +0.000 HD
ENDROOT
BRANCH   3   5
ATOM      5  N   UNL A   1      47.633 -19.503 -38.734  0.00  0.00    -0.264 N 
ATOM      6  H   UNL A   1      48.561 -19.175 -38.756  0.00  0.00    +0.000 HD
BRANCH   5   7
ATOM      7  C   UNL A   1      46.804 -19.698 -39.884  0.00  0.00    +0.058 A 
ATOM      8  C   UNL A   1      46.783 -20.937 -40.556  0.00  0.00    -0.003 A 
ATOM      9  C   UNL A   1      45.910 -21.065 -41.639  0.00  0.00    +0.047 A 
ATOM     10  N   UNL A   1      45.055 -20.087 -42.023  0.00  0.00    -0.251 NA
ATOM     11  C   UNL A   1      45.061 -18.919 -41.369  0.00  0.00    +0.073 A 
ATOM     12  C   UNL A   1      44.179 -17.928 -41.781  0.00  0.00    -0.036 A 
ATOM     13  C   UNL A   1      44.130 -16.676 -41.163  0.00  0.00    -0.060 A 
ATOM     14  C   UNL A   1      44.987 -16.398 -40.110  0.00  0.00    -0.061 A 
ATOM     15  C   UNL A   1      45.879 -17.379 -39.678  0.00  0.00    -0.051 A 
ATOM     16  C   UNL A   1      45.922 -18.657 -40.287  0.00  0.00    +0.023 A 
ATOM     17  C   UNL A   1      45.811 -22.341 -42.434  0.00  0.00    -0.010 C 
ATOM     18  C   UNL A   1      47.038 -23.234 -42.290  0.00  0.00    -0.047 C 
ATOM     19  C   UNL A   1      47.368 -23.411 -40.816  0.00  0.00    -0.049 C 
ATOM     20  C   UNL A   1      47.710 -22.067 -40.174  0.00  0.00    -0.024 C 
ENDBRANCH   5   7
ENDBRANCH   3   5
BRANCH   1  21
ATOM     21  C   UNL A   1      45.868 -19.251 -35.468  0.00  0.00    +0.029 C 
BRANCH  21  22
ATOM     22  C   UNL A   1      44.843 -20.245 -36.004  0.00  0.00    -0.019 C 
BRANCH  22  25
ATOM     23  C   UNL A   1      42.533 -17.646 -37.571  0.00  0.00    +0.165 A 
ATOM     24  C   UNL A   1      43.431 -18.270 -36.702  0.00  0.00    -0.013 A 
ATOM     25  C   UNL A   1      43.862 -19.585 -36.942  0.00  0.00    -0.040 A 
ATOM     26  C   UNL A   1      43.397 -20.273 -38.074  0.00  0.00    -0.013 A 
ATOM     27  C   UNL A   1      42.500 -19.666 -38.958  0.00  0.00    +0.165 A 
ATOM     28  C   UNL A   1      42.060 -18.359 -38.684  0.00  0.00    +0.204 A 
BRANCH  23  30
ATOM     29  C   UNL A   1      42.988 -15.351 -37.092  0.00  0.00    +0.079 C 
ATOM     30  O   UNL A   1      42.055 -16.370 -37.419  0.00  0.00    -0.491 OA
ENDBRANCH  23  30
BRANCH  27  31
ATOM     31  O   UNL A   1      41.992 -20.256 -40.086  0.00  0.00    -0.491 OA
ATOM     32  C   UNL A   1      42.131 -21.664 -40.209  0.00  0.00    +0.079 C 
ENDBRANCH  27  31
BRANCH  28  33
ATOM     33  O   UNL A   1      41.208 -17.737 -39.571  0.00  0.00    -0.488 OA
ATOM     34  C   UNL A   1      39.855 -17.981 -39.191  0.00  0.00    +0.079 C 
ENDBRANCH  28  33
ENDBRANCH  22  25
ENDBRANCH  21  22
ENDBRANCH   1  21
TORSDOF 8
ENDMDL
MODEL 17
REMARK VINA RESULT:    -6.883      3.069      5.428
REMARK INTER + INTRA:         -11.477
REMARK INTER:                 -10.395
REMARK INTRA:                  -1.081
REMARK UNBOUND:                -1.375
REMARK  Name = cpd80.pdb
REMARK  11 active torsions:
REMARK  status: ('A' for Active; 'I' for Inactive)
REMARK    1  A    between atoms: C_1  and  O_2
REMARK    2  A    between atoms: O_2  and  C_3
REMARK    3  A    between atoms: C_5  and  C_6
REMARK    4  A    between atoms: C_6  and  C_7
REMARK    5  A    between atoms: C_7  and  C_8
REMARK    6  A    between atoms: N_10  and  N_11
REMARK    7  A    between atoms: N_11  and  C_12
REMARK    8  A    between atoms: C_27  and  O_28
REMARK    9  A    between atoms: O_28  and  C_29
REMARK   10  A    between atoms: C_30  and  O_31
REMARK   11  A    between atoms: O_31  and  C_32
REMARK                            x       y       z     vdW  Elec       q    Type
REMARK                         _______ _______ _______ _____ _____    ______ ____
ROOT
ATOM      1  C   UNL A   1      35.264 -32.950 -30.739  0.00  0.00    +0.229 C 
ATOM      2  O   UNL A   1      35.563 -32.344 -31.765  0.00  0.00    -0.274 OA
ATOM      3  N   UNL A   1      35.714 -34.225 -30.452  0.00  0.00    -0.236 N 
ATOM      4  H   UNL A   1      35.569 -34.630 -29.567  0.00  0.00    +0.000 HD
ENDROOT
BRANCH   3   5
ATOM      5  N   UNL A   1      36.390 -34.924 -31.477  0.00  0.00    -0.264 N 
ATOM      6  H   UNL A   1      36.255 -34.782 -32.443  0.00  0.00    +0.000 HD
BRANCH   5   7
ATOM      7  C   UNL A   1      37.300 -35.869 -30.906  0.00  0.00    +0.058 A 
ATOM      8  C   UNL A   1      38.690 -35.740 -31.102  0.00  0.00    -0.003 A 
ATOM      9  C   UNL A   1      39.516 -36.674 -30.471  0.00  0.00    +0.047 A 
ATOM     10  N   UNL A   1      39.049 -37.639 -29.644  0.00  0.00    -0.251 NA
ATOM     11  C   UNL A   1      37.730 -37.744 -29.442  0.00  0.00    +0.073 A 
ATOM     12  C   UNL A   1      37.270 -38.744 -28.593  0.00  0.00    -0.036 A 
ATOM     13  C   UNL A   1      35.910 -38.933 -28.338  0.00  0.00    -0.060 A 
ATOM     14  C   UNL A   1      34.978 -38.109 -28.950  0.00  0.00    -0.061 A 
ATOM     15  C   UNL A   1      35.416 -37.098 -29.803  0.00  0.00    -0.051 A 
ATOM     16  C   UNL A   1      36.795 -36.888 -30.053  0.00  0.00    +0.023 A 
ATOM     17  C   UNL A   1      41.015 -36.636 -30.618  0.00  0.00    -0.010 C 
ATOM     18  C   UNL A   1      41.478 -35.867 -31.850  0.00  0.00    -0.047 C 
ATOM     19  C   UNL A   1      40.787 -34.513 -31.894  0.00  0.00    -0.049 C 
ATOM     20  C   UNL A   1      39.273 -34.684 -32.011  0.00  0.00    -0.024 C 
ENDBRANCH   5   7
ENDBRANCH   3   5
BRANCH   1  21
ATOM     21  C   UNL A   1      34.332 -32.387 -29.696  0.00  0.00    +0.029 C 
BRANCH  21  22
ATOM     22  C   UNL A   1      32.887 -32.589 -30.138  0.00  0.00    -0.019 C 
BRANCH  22  25
ATOM     23  C   UNL A   1      32.041 -35.957 -28.558  0.00  0.00    +0.165 A 
ATOM     24  C   UNL A   1      32.455 -34.632 -28.715  0.00  0.00    -0.013 A 
ATOM     25  C   UNL A   1      32.451 -34.026 -29.982  0.00  0.00    -0.040 A 
ATOM     26  C   UNL A   1      32.012 -34.755 -31.099  0.00  0.00    -0.013 A 
ATOM     27  C   UNL A   1      31.593 -36.081 -30.964  0.00  0.00    +0.165 A 
ATOM     28  C   UNL A   1      31.631 -36.678 -29.692  0.00  0.00    +0.204 A 
BRANCH  23  30
ATOM     29  C   UNL A   1      31.108 -36.177 -26.371  0.00  0.00    +0.079 C 
ATOM     30  O   UNL A   1      32.014 -36.633 -27.365  0.00  0.00    -0.491 OA
ENDBRANCH  23  30
BRANCH  27  31
ATOM     31  O   UNL A   1      31.150 -36.872 -31.993  0.00  0.00    -0.491 OA
ATOM     32  C   UNL A   1      30.180 -36.321 -32.872  0.00  0.00    +0.079 C 
ENDBRANCH  27  31
BRANCH  28  33
ATOM     33  O   UNL A   1      31.180 -37.972 -29.540  0.00  0.00    -0.488 OA
ATOM     34  C   UNL A   1      29.764 -37.970 -29.368  0.00  0.00    +0.079 C 
ENDBRANCH  28  33
ENDBRANCH  22  25
ENDBRANCH  21  22
ENDBRANCH   1  21
TORSDOF 8
ENDMDL
MODEL 18
REMARK VINA RESULT:    -6.750     18.418     21.596
REMARK INTER + INTRA:         -11.283
REMARK INTER:                 -10.269
REMARK INTRA:                  -1.013
REMARK UNBOUND:                -1.375
REMARK  Name = cpd80.pdb
REMARK  11 active torsions:
REMARK  status: ('A' for Active; 'I' for Inactive)
REMARK    1  A    between atoms: C_1  and  O_2
REMARK    2  A    between atoms: O_2  and  C_3
REMARK    3  A    between atoms: C_5  and  C_6
REMARK    4  A    between atoms: C_6  and  C_7
REMARK    5  A    between atoms: C_7  and  C_8
REMARK    6  A    between atoms: N_10  and  N_11
REMARK    7  A    between atoms: N_11  and  C_12
REMARK    8  A    between atoms: C_27  and  O_28
REMARK    9  A    between atoms: O_28  and  C_29
REMARK   10  A    between atoms: C_30  and  O_31
REMARK   11  A    between atoms: O_31  and  C_32
REMARK                            x       y       z     vdW  Elec       q    Type
REMARK                         _______ _______ _______ _____ _____    ______ ____
ROOT
ATOM      1  C   UNL A   1      45.271 -19.772 -34.929  0.00  0.00    +0.229 C 
ATOM      2  O   UNL A   1      45.874 -20.644 -34.308  0.00  0.00    -0.274 OA
ATOM      3  N   UNL A   1      43.896 -19.745 -35.058  0.00  0.00    -0.236 N 
ATOM      4  H   UNL A   1      43.434 -18.966 -35.444  0.00  0.00    +0.000 HD
ENDROOT
BRANCH   3   5
ATOM      5  N   UNL A   1      43.177 -20.878 -34.615  0.00  0.00    -0.264 N 
ATOM      6  H   UNL A   1      43.508 -21.537 -33.962  0.00  0.00    +0.000 HD
BRANCH   5   7
ATOM      7  C   UNL A   1      41.898 -20.925 -35.254  0.00  0.00    +0.058 A 
ATOM      8  C   UNL A   1      40.711 -20.829 -34.499  0.00  0.00    -0.003 A 
ATOM      9  C   UNL A   1      39.503 -20.832 -35.200  0.00  0.00    +0.047 A 
ATOM     10  N   UNL A   1      39.429 -20.861 -36.552  0.00  0.00    -0.251 NA
ATOM     11  C   UNL A   1      40.559 -20.929 -37.267  0.00  0.00    +0.073 A 
ATOM     12  C   UNL A   1      40.461 -20.961 -38.653  0.00  0.00    -0.036 A 
ATOM     13  C   UNL A   1      41.589 -21.047 -39.473  0.00  0.00    -0.060 A 
ATOM     14  C   UNL A   1      42.849 -21.110 -38.900  0.00  0.00    -0.061 A 
ATOM     15  C   UNL A   1      42.971 -21.077 -37.512  0.00  0.00    -0.051 A 
ATOM     16  C   UNL A   1      41.834 -20.972 -36.673  0.00  0.00    +0.023 A 
ATOM     17  C   UNL A   1      38.174 -20.742 -34.495  0.00  0.00    -0.010 C 
ATOM     18  C   UNL A   1      38.245 -21.149 -33.028  0.00  0.00    -0.047 C 
ATOM     19  C   UNL A   1      39.391 -20.414 -32.350  0.00  0.00    -0.049 C 
ATOM     20  C   UNL A   1      40.727 -20.792 -32.989  0.00  0.00    -0.024 C 
ENDBRANCH   5   7
ENDBRANCH   3   5
BRANCH   1  21
ATOM     21  C   UNL A   1      45.971 -18.655 -35.663  0.00  0.00    +0.029 C 
BRANCH  21  22
ATOM     22  C   UNL A   1      47.166 -19.214 -36.427  0.00  0.00    -0.019 C 
BRANCH  22  25
ATOM     23  C   UNL A   1      46.642 -18.398 -40.116  0.00  0.00    +0.165 A 
ATOM     24  C   UNL A   1      46.907 -18.259 -38.752  0.00  0.00    -0.013 A 
ATOM     25  C   UNL A   1      46.863 -19.373 -37.898  0.00  0.00    -0.040 A 
ATOM     26  C   UNL A   1      46.563 -20.640 -38.423  0.00  0.00    -0.013 A 
ATOM     27  C   UNL A   1      46.296 -20.801 -39.785  0.00  0.00    +0.165 A 
ATOM     28  C   UNL A   1      46.318 -19.669 -40.618  0.00  0.00    +0.204 A 
BRANCH  23  30
ATOM     29  C   UNL A   1      45.754 -16.295 -40.820  0.00  0.00    +0.079 C 
ATOM     30  O   UNL A   1      46.658 -17.371 -41.025  0.00  0.00    -0.491 OA
ENDBRANCH  23  30
BRANCH  27  31
ATOM     31  O   UNL A   1      45.993 -21.994 -40.389  0.00  0.00    -0.491 OA
ATOM     32  C   UNL A   1      47.065 -22.892 -40.640  0.00  0.00    +0.079 C 
ENDBRANCH  27  31
BRANCH  28  33
ATOM     33  O   UNL A   1      46.097 -19.823 -41.971  0.00  0.00    -0.488 OA
ATOM     34  C   UNL A   1      44.713 -19.627 -42.257  0.00  0.00    +0.079 C 
ENDBRANCH  28  33
ENDBRANCH  22  25
ENDBRANCH  21  22
ENDBRANCH   1  21
TORSDOF 8
ENDMDL
MODEL 19
REMARK VINA RESULT:    -6.615     18.904     21.491
REMARK INTER + INTRA:         -11.084
REMARK INTER:                 -10.234
REMARK INTRA:                  -0.850
REMARK UNBOUND:                -1.375
REMARK  Name = cpd80.pdb
REMARK  11 active torsions:
REMARK  status: ('A' for Active; 'I' for Inactive)
REMARK    1  A    between atoms: C_1  and  O_2
REMARK    2  A    between atoms: O_2  and  C_3
REMARK    3  A    between atoms: C_5  and  C_6
REMARK    4  A    between atoms: C_6  and  C_7
REMARK    5  A    between atoms: C_7  and  C_8
REMARK    6  A    between atoms: N_10  and  N_11
REMARK    7  A    between atoms: N_11  and  C_12
REMARK    8  A    between atoms: C_27  and  O_28
REMARK    9  A    between atoms: O_28  and  C_29
REMARK   10  A    between atoms: C_30  and  O_31
REMARK   11  A    between atoms: O_31  and  C_32
REMARK                            x       y       z     vdW  Elec       q    Type
REMARK                         _______ _______ _______ _____ _____    ______ ____
ROOT
ATOM      1  C   UNL A   1      44.981 -19.486 -35.015  0.00  0.00    +0.229 C 
ATOM      2  O   UNL A   1      45.271 -19.863 -33.882  0.00  0.00    -0.274 OA
ATOM      3  N   UNL A   1      43.863 -19.924 -35.698  0.00  0.00    -0.236 N 
ATOM      4  H   UNL A   1      43.586 -19.507 -36.545  0.00  0.00    +0.000 HD
ENDROOT
BRANCH   3   5
ATOM      5  N   UNL A   1      43.134 -20.996 -35.135  0.00  0.00    -0.264 N 
ATOM      6  H   UNL A   1      43.501 -21.665 -34.512  0.00  0.00    +0.000 HD
BRANCH   5   7
ATOM      7  C   UNL A   1      41.782 -20.965 -35.602  0.00  0.00    +0.058 A 
ATOM      8  C   UNL A   1      40.724 -20.643 -34.727  0.00  0.00    -0.003 A 
ATOM      9  C   UNL A   1      39.438 -20.584 -35.270  0.00  0.00    +0.047 A 
ATOM     10  N   UNL A   1      39.180 -20.759 -36.588  0.00  0.00    -0.251 NA
ATOM     11  C   UNL A   1      40.189 -21.041 -37.420  0.00  0.00    +0.073 A 
ATOM     12  C   UNL A   1      39.903 -21.220 -38.768  0.00  0.00    -0.036 A 
ATOM     13  C   UNL A   1      40.894 -21.532 -39.701  0.00  0.00    -0.060 A 
ATOM     14  C   UNL A   1      42.207 -21.677 -39.283  0.00  0.00    -0.061 A 
ATOM     15  C   UNL A   1      42.518 -21.500 -37.936  0.00  0.00    -0.051 A 
ATOM     16  C   UNL A   1      41.522 -21.166 -36.985  0.00  0.00    +0.023 A 
ATOM     17  C   UNL A   1      38.233 -20.258 -34.426  0.00  0.00    -0.010 C 
ATOM     18  C   UNL A   1      38.460 -20.499 -32.938  0.00  0.00    -0.047 C 
ATOM     19  C   UNL A   1      39.756 -19.832 -32.505  0.00  0.00    -0.049 C 
ATOM     20  C   UNL A   1      40.948 -20.436 -33.248  0.00  0.00    -0.024 C 
ENDBRANCH   5   7
ENDBRANCH   3   5
BRANCH   1  21
ATOM     21  C   UNL A   1      45.842 -18.535 -35.808  0.00  0.00    +0.029 C 
BRANCH  21  22
ATOM     22  C   UNL A   1      47.011 -19.296 -36.425  0.00  0.00    -0.019 C 
BRANCH  22  25
ATOM     23  C   UNL A   1      46.344 -20.973 -39.786  0.00  0.00    +0.165 A 
ATOM     24  C   UNL A   1      46.531 -20.776 -38.416  0.00  0.00    -0.013 A 
ATOM     25  C   UNL A   1      46.824 -19.500 -37.909  0.00  0.00    -0.040 A 
ATOM     26  C   UNL A   1      46.915 -18.408 -38.788  0.00  0.00    -0.013 A 
ATOM     27  C   UNL A   1      46.729 -18.582 -40.161  0.00  0.00    +0.165 A 
ATOM     28  C   UNL A   1      46.464 -19.873 -40.651  0.00  0.00    +0.204 A 
BRANCH  23  30
ATOM     29  C   UNL A   1      47.151 -23.013 -40.729  0.00  0.00    +0.079 C 
ATOM     30  O   UNL A   1      46.058 -22.179 -40.372  0.00  0.00    -0.491 OA
ENDBRANCH  23  30
BRANCH  27  31
ATOM     31  O   UNL A   1      46.798 -17.580 -41.095  0.00  0.00    -0.491 OA
ATOM     32  C   UNL A   1      45.914 -16.479 -40.942  0.00  0.00    +0.079 C 
ENDBRANCH  27  31
BRANCH  28  33
ATOM     33  O   UNL A   1      46.238 -20.049 -42.000  0.00  0.00    -0.488 OA
ATOM     34  C   UNL A   1      44.846 -19.903 -42.276  0.00  0.00    +0.079 C 
ENDBRANCH  28  33
ENDBRANCH  22  25
ENDBRANCH  21  22
ENDBRANCH   1  21
TORSDOF 8
ENDMDL
MODEL 20
REMARK VINA RESULT:    -6.564     18.442     21.368
REMARK INTER + INTRA:         -11.010
REMARK INTER:                 -10.058
REMARK INTRA:                  -0.952
REMARK UNBOUND:                -1.375
REMARK  Name = cpd80.pdb
REMARK  11 active torsions:
REMARK  status: ('A' for Active; 'I' for Inactive)
REMARK    1  A    between atoms: C_1  and  O_2
REMARK    2  A    between atoms: O_2  and  C_3
REMARK    3  A    between atoms: C_5  and  C_6
REMARK    4  A    between atoms: C_6  and  C_7
REMARK    5  A    between atoms: C_7  and  C_8
REMARK    6  A    between atoms: N_10  and  N_11
REMARK    7  A    between atoms: N_11  and  C_12
REMARK    8  A    between atoms: C_27  and  O_28
REMARK    9  A    between atoms: O_28  and  C_29
REMARK   10  A    between atoms: C_30  and  O_31
REMARK   11  A    between atoms: O_31  and  C_32
REMARK                            x       y       z     vdW  Elec       q    Type
REMARK                         _______ _______ _______ _____ _____    ______ ____
ROOT
ATOM      1  C   UNL A   1      44.994 -19.342 -34.820  0.00  0.00    +0.229 C 
ATOM      2  O   UNL A   1      45.387 -19.880 -33.788  0.00  0.00    -0.274 OA
ATOM      3  N   UNL A   1      43.877 -19.762 -35.517  0.00  0.00    -0.236 N 
ATOM      4  H   UNL A   1      43.511 -19.233 -36.261  0.00  0.00    +0.000 HD
ENDROOT
BRANCH   3   5
ATOM      5  N   UNL A   1      43.282 -20.981 -35.121  0.00  0.00    -0.264 N 
ATOM      6  H   UNL A   1      43.722 -21.675 -34.579  0.00  0.00    +0.000 HD
BRANCH   5   7
ATOM      7  C   UNL A   1      41.945 -21.057 -35.624  0.00  0.00    +0.058 A 
ATOM      8  C   UNL A   1      41.701 -21.233 -37.002  0.00  0.00    -0.003 A 
ATOM      9  C   UNL A   1      40.370 -21.348 -37.409  0.00  0.00    +0.047 A 
ATOM     10  N   UNL A   1      39.328 -21.361 -36.544  0.00  0.00    -0.251 NA
ATOM     11  C   UNL A   1      39.563 -21.217 -35.234  0.00  0.00    +0.073 A 
ATOM     12  C   UNL A   1      38.480 -21.229 -34.364  0.00  0.00    -0.036 A 
ATOM     13  C   UNL A   1      38.636 -21.071 -32.985  0.00  0.00    -0.060 A 
ATOM     14  C   UNL A   1      39.903 -20.888 -32.455  0.00  0.00    -0.061 A 
ATOM     15  C   UNL A   1      41.005 -20.875 -33.309  0.00  0.00    -0.051 A 
ATOM     16  C   UNL A   1      40.858 -21.053 -34.707  0.00  0.00    +0.023 A 
ATOM     17  C   UNL A   1      39.995 -21.531 -38.857  0.00  0.00    -0.010 C 
ATOM     18  C   UNL A   1      41.086 -21.082 -39.821  0.00  0.00    -0.047 C 
ATOM     19  C   UNL A   1      42.413 -21.701 -39.412  0.00  0.00    -0.049 C 
ATOM     20  C   UNL A   1      42.821 -21.229 -38.016  0.00  0.00    -0.024 C 
ENDBRANCH   5   7
ENDBRANCH   3   5
BRANCH   1  21
ATOM     21  C   UNL A   1      45.716 -18.189 -35.470  0.00  0.00    +0.029 C 
BRANCH  21  22
ATOM     22  C   UNL A   1      46.987 -18.694 -36.143  0.00  0.00    -0.019 C 
BRANCH  22  25
ATOM     23  C   UNL A   1      46.335 -20.694 -39.324  0.00  0.00    +0.165 A 
ATOM     24  C   UNL A   1      46.564 -20.370 -37.985  0.00  0.00    -0.013 A 
ATOM     25  C   UNL A   1      46.754 -19.035 -37.594  0.00  0.00    -0.040 A 
ATOM     26  C   UNL A   1      46.699 -18.014 -38.558  0.00  0.00    -0.013 A 
ATOM     27  C   UNL A   1      46.469 -18.317 -39.903  0.00  0.00    +0.165 A 
ATOM     28  C   UNL A   1      46.309 -19.662 -40.276  0.00  0.00    +0.204 A 
BRANCH  23  30
ATOM     29  C   UNL A   1      47.286 -22.692 -40.223  0.00  0.00    +0.079 C 
ATOM     30  O   UNL A   1      46.141 -21.966 -39.800  0.00  0.00    -0.491 OA
ENDBRANCH  23  30
BRANCH  27  31
ATOM     31  O   UNL A   1      46.399 -17.393 -40.913  0.00  0.00    -0.491 OA
ATOM     32  C   UNL A   1      47.390 -16.375 -40.941  0.00  0.00    +0.079 C 
ENDBRANCH  27  31
BRANCH  28  33
ATOM     33  O   UNL A   1      46.040 -19.968 -41.594  0.00  0.00    -0.488 OA
ATOM     34  C   UNL A   1      44.633 -19.912 -41.823  0.00  0.00    +0.079 C 
ENDBRANCH  28  33
ENDBRANCH  22  25
ENDBRANCH  21  22
ENDBRANCH   1  21
TORSDOF 8
ENDMDL
