REMARK  Name = cpd111.pdb
REMARK  8 active torsions:
REMARK  status: ('A' for Active; 'I' for Inactive)
REMARK    1  A    between atoms: C_1  and  C_2
REMARK    2  A    between atoms: C_6  and  C_7
REMARK    3  A    between atoms: C_9  and  N_10
REMARK    4  A    between atoms: C_11  and  C_12
REMARK    5  A    between atoms: C_15  and  O_16
REMARK    6  A    between atoms: O_16  and  C_17
REMARK    7  A    between atoms: C_19  and  O_20
REMARK    8  A    between atoms: O_20  and  C_21
REMARK                            x       y       z     vdW  Elec       q    Type
REMARK                         _______ _______ _______ _____ _____    ______ ____
ROOT
ATOM      1  C   UNL A   1       0.686  -3.141  -3.153  0.00  0.00    -0.046 C 
ATOM      2  C   UNL A   1       1.250  -2.359  -2.009  0.00  0.00    -0.085 C 
ATOM      3  C   UNL A   1       0.609  -1.888  -0.916  0.00  0.00    -0.035 C 
ATOM      4  C   UNL A   1      -0.881  -2.058  -0.668  0.00  0.00    +0.006 C 
ATOM      5  C   UNL A   1      -1.197  -2.497   0.744  0.00  0.00    -0.077 C 
ATOM      6  C   UNL A   1      -0.367  -2.328   1.787  0.00  0.00    -0.073 C 
ATOM      7  C   UNL A   1      -0.715  -2.769   3.177  0.00  0.00    -0.044 C 
ATOM      8  C   UNL A   1       0.984  -1.670   1.606  0.00  0.00    +0.001 C 
ATOM      9  C   UNL A   1       1.227  -1.028   0.195  0.00  0.00    +0.113 C 
ATOM     10  C   UNL A   1       0.536   0.348   0.177  0.00  0.00    -0.000 C 
ATOM     11  C   UNL A   1       1.117   1.528   0.457  0.00  0.00    -0.068 C 
ATOM     12  C   UNL A   1       0.370   2.820   0.467  0.00  0.00    +0.045 C 
ATOM     13  C   UNL A   1      -1.133   2.600   0.568  0.00  0.00    +0.240 C 
ATOM     14  O   UNL A   1      -1.843   3.446   1.108  0.00  0.00    -0.273 OA
ATOM     15  N   UNL A   1      -1.661   1.491  -0.049  0.00  0.00    -0.185 NA
ATOM     16  C   UNL A   1      -0.909   0.449  -0.219  0.00  0.00    +0.040 C 
ATOM     17  C   UNL A   1      -1.550  -0.719  -0.962  0.00  0.00    -0.002 C 
ENDROOT
BRANCH   9  18
ATOM     18  N   UNL A   1       2.678  -0.780  -0.003  0.00  0.00    -0.275 NA
ATOM     19  C   UNL A   1       3.511  -1.757   0.101  0.00  0.00    +0.034 C 
BRANCH  19  20
ATOM     20  C   UNL A   1       4.969  -1.555  -0.067  0.00  0.00    +0.035 A 
ATOM     21  C   UNL A   1       5.449  -0.276  -0.370  0.00  0.00    -0.046 A 
ATOM     22  C   UNL A   1       6.817  -0.069  -0.533  0.00  0.00    -0.019 A 
ATOM     23  C   UNL A   1       7.715  -1.128  -0.397  0.00  0.00    +0.124 A 
ATOM     24  C   UNL A   1       7.234  -2.407  -0.095  0.00  0.00    +0.022 A 
ATOM     25  C   UNL A   1       5.859  -2.634   0.072  0.00  0.00    +0.132 A 
BRANCH  23  26
ATOM     26  O   UNL A   1       9.026  -0.783  -0.582  0.00  0.00    -0.495 OA
ATOM     27  C   UNL A   1       9.997  -1.815  -0.456  0.00  0.00    +0.079 C 
ENDBRANCH  23  26
BRANCH  25  28
ATOM     28  O   UNL A   1       5.307  -3.854   0.369  0.00  0.00    -0.494 OA
ATOM     29  C   UNL A   1       6.180  -4.970   0.484  0.00  0.00    +0.079 C 
ENDBRANCH  25  28
ENDBRANCH  19  20
ENDBRANCH   9  18
TORSDOF 4
