@<TRIPOS>MOLECULE
*****
 29 32 0 0 0
SMALL
GASTEIGER

@<TRIPOS>ATOM
      1 C          -0.0000   -5.4719    0.0000 C.3     1  UNL1        0.0301
      2 C           0.7898   -5.0159    0.0000 C.2     1  UNL1       -0.0319
      3 C           0.7898   -1.3680    0.0000 C.2     1  UNL1       -0.0204
      4 C          -0.0000   -0.9120    0.0000 C.3     1  UNL1        0.0473
      5 C           0.1564   -1.5973    0.0000 C.2     1  UNL1       -0.0303
      6 C           0.7898   -1.9024    0.0000 C.2     1  UNL1       -0.0453
      7 C           0.7898   -2.8143    0.0000 C.3     1  UNL1        0.0261
      8 C           1.4232   -1.5973    0.0000 C.3     1  UNL1        0.0523
      9 C           1.5796   -0.9120    0.0000 C.3     1  UNL1        0.1231
     10 N           2.4605   -0.6759    0.0000 N.2     1  UNL1       -0.2643
     11 C           3.1054   -1.3208    0.0000 C.2     1  UNL1        0.0967
     12 C           3.9863   -1.0848    0.0000 C.ar    1  UNL1        0.0529
     13 C           4.2223   -0.2039    0.0000 C.ar    1  UNL1        0.0077
     14 C           5.1032    0.0322    0.0000 C.ar    1  UNL1        0.0372
     15 C           5.7481   -0.6127    0.0000 C.ar    1  UNL1        0.1418
     16 O           6.6290   -0.3767    0.0000 O.3     1  UNL1       -0.4713
     17 C           7.2739   -1.0215    0.0000 C.3     1  UNL1        0.2525
     18 C           5.5120   -1.4936    0.0000 C.ar    1  UNL1        0.0738
     19 C           4.6311   -1.7296    0.0000 C.ar    1  UNL1        0.1432
     20 O           4.3951   -2.6105    0.0000 O.3     1  UNL1       -0.4713
     21 C           5.0400   -3.2554    0.0000 C.3     1  UNL1        0.2525
     22 C           1.5796   -0.0000    0.0000 C.ar    1  UNL1        0.0154
     23 C           2.3694    0.4560    0.0000 C.ar    1  UNL1        0.0040
     24 C           2.3694    1.3680    0.0000 C.ar    1  UNL1        0.0623
     25 C           1.5796    1.8240    0.0000 C.ar    1  UNL1        0.2790
     26 O           1.5796    2.7359    0.0000 O.2     1  UNL1       -0.2652
     27 N           0.7898    1.3680    0.0000 N.ar    1  UNL1       -0.2125
     28 C           0.7898    0.4560    0.0000 C.ar    1  UNL1        0.0609
     29 C           0.0000    0.0000    0.0000 C.3     1  UNL1        0.0541
@<TRIPOS>BOND
     1     1     2    1
     2     2     3    2
     3     3     4    1
     4     4     5    1
     5     5     6    2
     6     6     7    1
     7     6     8    1
     8     8     9    1
     9     3     9    1
    10     9    10    1
    11    10    11    2
    12    11    12    1
    13    12    13   ar
    14    13    14   ar
    15    14    15   ar
    16    15    16    1
    17    16    17    1
    18    15    18   ar
    19    18    19   ar
    20    12    19   ar
    21    19    20    1
    22    20    21    1
    23     9    22    1
    24    22    23   ar
    25    23    24   ar
    26    24    25   ar
    27    25    26    2
    28    25    27   ar
    29    27    28   ar
    30    22    28   ar
    31    28    29    1
    32     4    29    1
