MODEL 1
REMARK VINA RESULT:    -8.023      0.000      0.000
REMARK INTER + INTRA:         -10.770
REMARK INTER:                  -9.899
REMARK INTRA:                  -0.871
REMARK UNBOUND:                -0.871
REMARK  Name = cpd111.pdb
REMARK  8 active torsions:
REMARK  status: ('A' for Active; 'I' for Inactive)
REMARK    1  A    between atoms: C_1  and  C_2
REMARK    2  A    between atoms: C_6  and  C_7
REMARK    3  A    between atoms: C_9  and  N_10
REMARK    4  A    between atoms: C_11  and  C_12
REMARK    5  A    between atoms: C_15  and  O_16
REMARK    6  A    between atoms: O_16  and  C_17
REMARK    7  A    between atoms: C_19  and  O_20
REMARK    8  A    between atoms: O_20  and  C_21
REMARK                            x       y       z     vdW  Elec       q    Type
REMARK                         _______ _______ _______ _____ _____    ______ ____
ROOT
ATOM      1  C   UNL A   1      34.745 -37.927 -26.110  0.00  0.00    -0.046 C 
ATOM      2  C   UNL A   1      34.856 -37.454 -27.524  0.00  0.00    -0.085 C 
ATOM      3  C   UNL A   1      35.568 -37.995 -28.538  0.00  0.00    -0.035 C 
ATOM      4  C   UNL A   1      36.447 -39.226 -28.394  0.00  0.00    +0.006 C 
ATOM      5  C   UNL A   1      36.255 -40.222 -29.516  0.00  0.00    -0.077 C 
ATOM      6  C   UNL A   1      35.745 -39.910 -30.719  0.00  0.00    -0.073 C 
ATOM      7  C   UNL A   1      35.574 -40.921 -31.812  0.00  0.00    -0.044 C 
ATOM      8  C   UNL A   1      35.311 -38.494 -31.035  0.00  0.00    +0.001 C 
ATOM      9  C   UNL A   1      35.701 -37.423 -29.957  0.00  0.00    +0.113 C 
ATOM     10  C   UNL A   1      37.175 -37.040 -30.183  0.00  0.00    -0.000 C 
ATOM     11  C   UNL A   1      37.618 -35.999 -30.910  0.00  0.00    -0.068 C 
ATOM     12  C   UNL A   1      39.067 -35.716 -31.127  0.00  0.00    +0.045 C 
ATOM     13  C   UNL A   1      39.928 -36.936 -30.828  0.00  0.00    +0.240 C 
ATOM     14  O   UNL A   1      40.995 -37.094 -31.419  0.00  0.00    -0.273 OA
ATOM     15  N   UNL A   1      39.522 -37.776 -29.819  0.00  0.00    -0.185 NA
ATOM     16  C   UNL A   1      38.261 -37.842 -29.526  0.00  0.00    +0.040 C 
ATOM     17  C   UNL A   1      37.897 -38.752 -28.358  0.00  0.00    -0.002 C 
ENDROOT
BRANCH   9  18
ATOM     18  N   UNL A   1      34.901 -36.188 -30.161  0.00  0.00    -0.275 NA
ATOM     19  C   UNL A   1      33.835 -36.232 -30.882  0.00  0.00    +0.034 C 
BRANCH  19  20
ATOM     20  C   UNL A   1      33.017 -35.022 -31.132  0.00  0.00    +0.035 A 
ATOM     21  C   UNL A   1      33.271 -33.863 -30.390  0.00  0.00    -0.046 A 
ATOM     22  C   UNL A   1      32.510 -32.717 -30.612  0.00  0.00    -0.019 A 
ATOM     23  C   UNL A   1      31.494 -32.715 -31.568  0.00  0.00    +0.124 A 
ATOM     24  C   UNL A   1      31.240 -33.875 -32.308  0.00  0.00    +0.022 A 
ATOM     25  C   UNL A   1      31.996 -35.039 -32.098  0.00  0.00    +0.132 A 
BRANCH  23  26
ATOM     26  O   UNL A   1      30.829 -31.525 -31.681  0.00  0.00    -0.495 OA
ATOM     27  C   UNL A   1      30.883 -30.638 -30.570  0.00  0.00    +0.079 C 
ENDBRANCH  23  26
BRANCH  25  28
ATOM     28  O   UNL A   1      31.812 -36.214 -32.781  0.00  0.00    -0.494 OA
ATOM     29  C   UNL A   1      32.143 -36.241 -34.163  0.00  0.00    +0.079 C 
ENDBRANCH  25  28
ENDBRANCH  19  20
ENDBRANCH   9  18
TORSDOF 4
ENDMDL
MODEL 2
REMARK VINA RESULT:    -7.933      2.284      7.275
REMARK INTER + INTRA:         -10.659
REMARK INTER:                 -10.354
REMARK INTRA:                  -0.305
REMARK UNBOUND:                -0.871
REMARK  Name = cpd111.pdb
REMARK  8 active torsions:
REMARK  status: ('A' for Active; 'I' for Inactive)
REMARK    1  A    between atoms: C_1  and  C_2
REMARK    2  A    between atoms: C_6  and  C_7
REMARK    3  A    between atoms: C_9  and  N_10
REMARK    4  A    between atoms: C_11  and  C_12
REMARK    5  A    between atoms: C_15  and  O_16
REMARK    6  A    between atoms: O_16  and  C_17
REMARK    7  A    between atoms: C_19  and  O_20
REMARK    8  A    between atoms: O_20  and  C_21
REMARK                            x       y       z     vdW  Elec       q    Type
REMARK                         _______ _______ _______ _____ _____    ______ ____
ROOT
ATOM      1  C   UNL A   1      33.175 -39.121 -32.665  0.00  0.00    -0.046 C 
ATOM      2  C   UNL A   1      34.064 -38.257 -31.828  0.00  0.00    -0.085 C 
ATOM      3  C   UNL A   1      33.713 -37.295 -30.945  0.00  0.00    -0.035 C 
ATOM      4  C   UNL A   1      32.276 -36.887 -30.663  0.00  0.00    +0.006 C 
ATOM      5  C   UNL A   1      31.982 -36.750 -29.186  0.00  0.00    -0.077 C 
ATOM      6  C   UNL A   1      32.923 -36.552 -28.248  0.00  0.00    -0.073 C 
ATOM      7  C   UNL A   1      32.595 -36.412 -26.791  0.00  0.00    -0.044 C 
ATOM      8  C   UNL A   1      34.386 -36.457 -28.623  0.00  0.00    +0.001 C 
ATOM      9  C   UNL A   1      34.674 -36.389 -30.164  0.00  0.00    +0.113 C 
ATOM     10  C   UNL A   1      34.445 -34.937 -30.623  0.00  0.00    -0.000 C 
ATOM     11  C   UNL A   1      35.388 -33.985 -30.732  0.00  0.00    -0.068 C 
ATOM     12  C   UNL A   1      35.083 -32.581 -31.138  0.00  0.00    +0.045 C 
ATOM     13  C   UNL A   1      33.604 -32.259 -30.979  0.00  0.00    +0.240 C 
ATOM     14  O   UNL A   1      33.249 -31.106 -30.741  0.00  0.00    -0.273 OA
ATOM     15  N   UNL A   1      32.700 -33.267 -31.213  0.00  0.00    -0.185 NA
ATOM     16  C   UNL A   1      33.071 -34.497 -31.038  0.00  0.00    +0.040 C 
ATOM     17  C   UNL A   1      32.029 -35.560 -31.372  0.00  0.00    -0.002 C 
ENDROOT
BRANCH   9  18
ATOM     18  N   UNL A   1      36.103 -36.699 -30.424  0.00  0.00    -0.275 NA
ATOM     19  C   UNL A   1      36.918 -36.826 -29.434  0.00  0.00    +0.034 C 
BRANCH  19  20
ATOM     20  C   UNL A   1      38.356 -37.114 -29.643  0.00  0.00    +0.035 A 
ATOM     21  C   UNL A   1      39.019 -37.959 -28.747  0.00  0.00    -0.046 A 
ATOM     22  C   UNL A   1      40.372 -38.239 -28.928  0.00  0.00    -0.019 A 
ATOM     23  C   UNL A   1      41.073 -37.683 -29.999  0.00  0.00    +0.124 A 
ATOM     24  C   UNL A   1      40.409 -36.837 -30.895  0.00  0.00    +0.022 A 
ATOM     25  C   UNL A   1      39.046 -36.544 -30.727  0.00  0.00    +0.132 A 
BRANCH  23  26
ATOM     26  O   UNL A   1      42.391 -38.042 -30.057  0.00  0.00    -0.495 OA
ATOM     27  C   UNL A   1      43.157 -37.543 -31.147  0.00  0.00    +0.079 C 
ENDBRANCH  23  26
BRANCH  25  28
ATOM     28  O   UNL A   1      38.323 -35.727 -31.558  0.00  0.00    -0.494 OA
ATOM     29  C   UNL A   1      38.850 -34.440 -31.852  0.00  0.00    +0.079 C 
ENDBRANCH  25  28
ENDBRANCH  19  20
ENDBRANCH   9  18
TORSDOF 4
ENDMDL
MODEL 3
REMARK VINA RESULT:    -7.854      3.009      7.465
REMARK INTER + INTRA:         -10.562
REMARK INTER:                  -9.696
REMARK INTRA:                  -0.866
REMARK UNBOUND:                -0.871
REMARK  Name = cpd111.pdb
REMARK  8 active torsions:
REMARK  status: ('A' for Active; 'I' for Inactive)
REMARK    1  A    between atoms: C_1  and  C_2
REMARK    2  A    between atoms: C_6  and  C_7
REMARK    3  A    between atoms: C_9  and  N_10
REMARK    4  A    between atoms: C_11  and  C_12
REMARK    5  A    between atoms: C_15  and  O_16
REMARK    6  A    between atoms: O_16  and  C_17
REMARK    7  A    between atoms: C_19  and  O_20
REMARK    8  A    between atoms: O_20  and  C_21
REMARK                            x       y       z     vdW  Elec       q    Type
REMARK                         _______ _______ _______ _____ _____    ______ ____
ROOT
ATOM      1  C   UNL A   1      33.865 -31.974 -29.979  0.00  0.00    -0.046 C 
ATOM      2  C   UNL A   1      34.251 -33.380 -29.642  0.00  0.00    -0.085 C 
ATOM      3  C   UNL A   1      33.445 -34.426 -29.354  0.00  0.00    -0.035 C 
ATOM      4  C   UNL A   1      31.929 -34.337 -29.291  0.00  0.00    +0.006 C 
ATOM      5  C   UNL A   1      31.242 -35.476 -30.010  0.00  0.00    -0.077 C 
ATOM      6  C   UNL A   1      31.825 -36.656 -30.278  0.00  0.00    -0.073 C 
ATOM      7  C   UNL A   1      31.112 -37.769 -30.986  0.00  0.00    -0.044 C 
ATOM      8  C   UNL A   1      33.258 -36.926 -29.868  0.00  0.00    +0.001 C 
ATOM      9  C   UNL A   1      33.901 -35.833 -28.944  0.00  0.00    +0.113 C 
ATOM     10  C   UNL A   1      33.423 -36.092 -27.504  0.00  0.00    -0.000 C 
ATOM     11  C   UNL A   1      34.077 -36.806 -26.570  0.00  0.00    -0.068 C 
ATOM     12  C   UNL A   1      33.528 -37.057 -25.205  0.00  0.00    +0.045 C 
ATOM     13  C   UNL A   1      32.026 -36.813 -25.150  0.00  0.00    +0.240 C 
ATOM     14  O   UNL A   1      31.331 -37.437 -24.351  0.00  0.00    -0.273 OA
ATOM     15  N   UNL A   1      31.510 -35.813 -25.940  0.00  0.00    -0.185 NA
ATOM     16  C   UNL A   1      32.135 -35.486 -27.028  0.00  0.00    +0.040 C 
ATOM     17  C   UNL A   1      31.531 -34.330 -27.819  0.00  0.00    -0.002 C 
ENDROOT
BRANCH   9  18
ATOM     18  N   UNL A   1      35.379 -35.985 -28.938  0.00  0.00    -0.275 NA
ATOM     19  C   UNL A   1      35.947 -36.725 -29.826  0.00  0.00    +0.034 C 
BRANCH  19  20
ATOM     20  C   UNL A   1      37.415 -36.924 -29.848  0.00  0.00    +0.035 A 
ATOM     21  C   UNL A   1      38.200 -36.109 -30.670  0.00  0.00    -0.046 A 
ATOM     22  C   UNL A   1      39.582 -36.284 -30.704  0.00  0.00    -0.019 A 
ATOM     23  C   UNL A   1      40.191 -37.267 -29.923  0.00  0.00    +0.124 A 
ATOM     24  C   UNL A   1      39.404 -38.082 -29.101  0.00  0.00    +0.022 A 
ATOM     25  C   UNL A   1      38.011 -37.920 -29.056  0.00  0.00    +0.132 A 
BRANCH  23  26
ATOM     26  O   UNL A   1      41.552 -37.327 -30.053  0.00  0.00    -0.495 OA
ATOM     27  C   UNL A   1      42.168 -36.385 -30.923  0.00  0.00    +0.079 C 
ENDBRANCH  23  26
BRANCH  25  28
ATOM     28  O   UNL A   1      37.170 -38.675 -28.279  0.00  0.00    -0.494 OA
ATOM     29  C   UNL A   1      37.035 -40.056 -28.590  0.00  0.00    +0.079 C 
ENDBRANCH  25  28
ENDBRANCH  19  20
ENDBRANCH   9  18
TORSDOF 4
ENDMDL
MODEL 4
REMARK VINA RESULT:    -7.468      1.765      2.398
REMARK INTER + INTRA:         -10.085
REMARK INTER:                  -9.226
REMARK INTRA:                  -0.860
REMARK UNBOUND:                -0.871
REMARK  Name = cpd111.pdb
REMARK  8 active torsions:
REMARK  status: ('A' for Active; 'I' for Inactive)
REMARK    1  A    between atoms: C_1  and  C_2
REMARK    2  A    between atoms: C_6  and  C_7
REMARK    3  A    between atoms: C_9  and  N_10
REMARK    4  A    between atoms: C_11  and  C_12
REMARK    5  A    between atoms: C_15  and  O_16
REMARK    6  A    between atoms: O_16  and  C_17
REMARK    7  A    between atoms: C_19  and  O_20
REMARK    8  A    between atoms: O_20  and  C_21
REMARK                            x       y       z     vdW  Elec       q    Type
REMARK                         _______ _______ _______ _____ _____    ______ ____
ROOT
ATOM      1  C   UNL A   1      34.747 -37.746 -26.190  0.00  0.00    -0.046 C 
ATOM      2  C   UNL A   1      34.583 -36.916 -27.424  0.00  0.00    -0.085 C 
ATOM      3  C   UNL A   1      34.947 -37.214 -28.691  0.00  0.00    -0.035 C 
ATOM      4  C   UNL A   1      35.648 -38.501 -29.092  0.00  0.00    +0.006 C 
ATOM      5  C   UNL A   1      35.052 -39.137 -30.328  0.00  0.00    -0.077 C 
ATOM      6  C   UNL A   1      34.320 -38.471 -31.237  0.00  0.00    -0.073 C 
ATOM      7  C   UNL A   1      33.749 -39.132 -32.456  0.00  0.00    -0.044 C 
ATOM      8  C   UNL A   1      34.032 -36.995 -31.071  0.00  0.00    +0.001 C 
ATOM      9  C   UNL A   1      34.818 -36.290 -29.910  0.00  0.00    +0.113 C 
ATOM     10  C   UNL A   1      36.234 -35.973 -30.424  0.00  0.00    -0.000 C 
ATOM     11  C   UNL A   1      36.636 -34.810 -30.968  0.00  0.00    -0.068 C 
ATOM     12  C   UNL A   1      38.017 -34.591 -31.490  0.00  0.00    +0.045 C 
ATOM     13  C   UNL A   1      38.739 -35.907 -31.739  0.00  0.00    +0.240 C 
ATOM     14  O   UNL A   1      39.600 -35.980 -32.614  0.00  0.00    -0.273 OA
ATOM     15  N   UNL A   1      38.469 -36.957 -30.893  0.00  0.00    -0.185 NA
ATOM     16  C   UNL A   1      37.319 -37.003 -30.298  0.00  0.00    +0.040 C 
ATOM     17  C   UNL A   1      37.117 -38.167 -29.332  0.00  0.00    -0.002 C 
ENDROOT
BRANCH   9  18
ATOM     18  N   UNL A   1      34.179 -34.988 -29.587  0.00  0.00    -0.275 NA
ATOM     19  C   UNL A   1      33.026 -34.703 -30.086  0.00  0.00    +0.034 C 
BRANCH  19  20
ATOM     20  C   UNL A   1      32.359 -33.410 -29.809  0.00  0.00    +0.035 A 
ATOM     21  C   UNL A   1      31.551 -33.289 -28.673  0.00  0.00    -0.046 A 
ATOM     22  C   UNL A   1      30.915 -32.081 -28.398  0.00  0.00    -0.019 A 
ATOM     23  C   UNL A   1      31.077 -30.986 -29.249  0.00  0.00    +0.124 A 
ATOM     24  C   UNL A   1      31.884 -31.108 -30.385  0.00  0.00    +0.022 A 
ATOM     25  C   UNL A   1      32.532 -32.318 -30.677  0.00  0.00    +0.132 A 
BRANCH  23  26
ATOM     26  O   UNL A   1      30.397 -29.864 -28.859  0.00  0.00    -0.495 OA
ATOM     27  C   UNL A   1      29.033 -30.023 -28.489  0.00  0.00    +0.079 C 
ENDBRANCH  23  26
BRANCH  25  28
ATOM     28  O   UNL A   1      33.339 -32.520 -31.768  0.00  0.00    -0.494 OA
ATOM     29  C   UNL A   1      34.649 -31.967 -31.739  0.00  0.00    +0.079 C 
ENDBRANCH  25  28
ENDBRANCH  19  20
ENDBRANCH   9  18
TORSDOF 4
ENDMDL
MODEL 5
REMARK VINA RESULT:    -7.340      2.397      7.360
REMARK INTER + INTRA:          -9.927
REMARK INTER:                  -9.063
REMARK INTRA:                  -0.864
REMARK UNBOUND:                -0.871
REMARK  Name = cpd111.pdb
REMARK  8 active torsions:
REMARK  status: ('A' for Active; 'I' for Inactive)
REMARK    1  A    between atoms: C_1  and  C_2
REMARK    2  A    between atoms: C_6  and  C_7
REMARK    3  A    between atoms: C_9  and  N_10
REMARK    4  A    between atoms: C_11  and  C_12
REMARK    5  A    between atoms: C_15  and  O_16
REMARK    6  A    between atoms: O_16  and  C_17
REMARK    7  A    between atoms: C_19  and  O_20
REMARK    8  A    between atoms: O_20  and  C_21
REMARK                            x       y       z     vdW  Elec       q    Type
REMARK                         _______ _______ _______ _____ _____    ______ ____
ROOT
ATOM      1  C   UNL A   1      31.746 -38.542 -31.661  0.00  0.00    -0.046 C 
ATOM      2  C   UNL A   1      32.749 -37.648 -31.003  0.00  0.00    -0.085 C 
ATOM      3  C   UNL A   1      32.542 -36.710 -30.052  0.00  0.00    -0.035 C 
ATOM      4  C   UNL A   1      31.175 -36.366 -29.483  0.00  0.00    +0.006 C 
ATOM      5  C   UNL A   1      31.175 -36.253 -27.976  0.00  0.00    -0.077 C 
ATOM      6  C   UNL A   1      32.275 -36.024 -27.239  0.00  0.00    -0.073 C 
ATOM      7  C   UNL A   1      32.239 -35.911 -25.745  0.00  0.00    -0.044 C 
ATOM      8  C   UNL A   1      33.630 -35.864 -27.895  0.00  0.00    +0.001 C 
ATOM      9  C   UNL A   1      33.603 -35.770 -29.462  0.00  0.00    +0.113 C 
ATOM     10  C   UNL A   1      33.229 -34.326 -29.842  0.00  0.00    -0.000 C 
ATOM     11  C   UNL A   1      34.093 -33.333 -30.119  0.00  0.00    -0.068 C 
ATOM     12  C   UNL A   1      33.657 -31.940 -30.433  0.00  0.00    +0.045 C 
ATOM     13  C   UNL A   1      32.227 -31.682 -29.979  0.00  0.00    +0.240 C 
ATOM     14  O   UNL A   1      31.880 -30.548 -29.655  0.00  0.00    -0.273 OA
ATOM     15  N   UNL A   1      31.335 -32.726 -30.045  0.00  0.00    -0.185 NA
ATOM     16  C   UNL A   1      31.783 -33.940 -29.968  0.00  0.00    +0.040 C 
ATOM     17  C   UNL A   1      30.739 -35.044 -30.107  0.00  0.00    -0.002 C 
ENDROOT
BRANCH   9  18
ATOM     18  N   UNL A   1      34.963 -36.017 -30.005  0.00  0.00    -0.275 NA
ATOM     19  C   UNL A   1      35.905 -36.400 -29.214  0.00  0.00    +0.034 C 
BRANCH  19  20
ATOM     20  C   UNL A   1      37.282 -36.639 -29.706  0.00  0.00    +0.035 A 
ATOM     21  C   UNL A   1      37.754 -35.897 -30.794  0.00  0.00    -0.046 A 
ATOM     22  C   UNL A   1      39.046 -36.109 -31.270  0.00  0.00    -0.019 A 
ATOM     23  C   UNL A   1      39.875 -37.058 -30.670  0.00  0.00    +0.124 A 
ATOM     24  C   UNL A   1      39.401 -37.800 -29.582  0.00  0.00    +0.022 A 
ATOM     25  C   UNL A   1      38.102 -37.600 -29.090  0.00  0.00    +0.132 A 
BRANCH  23  26
ATOM     26  O   UNL A   1      41.116 -37.162 -31.237  0.00  0.00    -0.495 OA
ATOM     27  C   UNL A   1      41.399 -36.320 -32.348  0.00  0.00    +0.079 C 
ENDBRANCH  23  26
BRANCH  25  28
ATOM     28  O   UNL A   1      37.562 -38.283 -28.030  0.00  0.00    -0.494 OA
ATOM     29  C   UNL A   1      37.296 -39.669 -28.198  0.00  0.00    +0.079 C 
ENDBRANCH  25  28
ENDBRANCH  19  20
ENDBRANCH   9  18
TORSDOF 4
ENDMDL
MODEL 6
REMARK VINA RESULT:    -6.962     18.013     20.658
REMARK INTER + INTRA:          -9.462
REMARK INTER:                  -8.619
REMARK INTRA:                  -0.843
REMARK UNBOUND:                -0.871
REMARK  Name = cpd111.pdb
REMARK  8 active torsions:
REMARK  status: ('A' for Active; 'I' for Inactive)
REMARK    1  A    between atoms: C_1  and  C_2
REMARK    2  A    between atoms: C_6  and  C_7
REMARK    3  A    between atoms: C_9  and  N_10
REMARK    4  A    between atoms: C_11  and  C_12
REMARK    5  A    between atoms: C_15  and  O_16
REMARK    6  A    between atoms: O_16  and  C_17
REMARK    7  A    between atoms: C_19  and  O_20
REMARK    8  A    between atoms: O_20  and  C_21
REMARK                            x       y       z     vdW  Elec       q    Type
REMARK                         _______ _______ _______ _____ _____    ______ ____
ROOT
ATOM      1  C   UNL A   1      41.903 -16.326 -39.769  0.00  0.00    -0.046 C 
ATOM      2  C   UNL A   1      42.453 -17.590 -39.189  0.00  0.00    -0.085 C 
ATOM      3  C   UNL A   1      43.746 -17.964 -39.064  0.00  0.00    -0.035 C 
ATOM      4  C   UNL A   1      44.921 -17.129 -39.548  0.00  0.00    +0.006 C 
ATOM      5  C   UNL A   1      46.039 -17.042 -38.533  0.00  0.00    -0.077 C 
ATOM      6  C   UNL A   1      46.219 -17.924 -37.536  0.00  0.00    -0.073 C 
ATOM      7  C   UNL A   1      47.344 -17.812 -36.551  0.00  0.00    -0.044 C 
ATOM      8  C   UNL A   1      45.279 -19.097 -37.357  0.00  0.00    +0.001 C 
ATOM      9  C   UNL A   1      44.251 -19.309 -38.523  0.00  0.00    +0.113 C 
ATOM     10  C   UNL A   1      44.977 -20.044 -39.665  0.00  0.00    -0.000 C 
ATOM     11  C   UNL A   1      44.990 -21.373 -39.868  0.00  0.00    -0.068 C 
ATOM     12  C   UNL A   1      45.758 -22.020 -40.971  0.00  0.00    +0.045 C 
ATOM     13  C   UNL A   1      46.830 -21.094 -41.529  0.00  0.00    +0.240 C 
ATOM     14  O   UNL A   1      47.858 -21.564 -42.013  0.00  0.00    -0.273 OA
ATOM     15  N   UNL A   1      46.560 -19.747 -41.560  0.00  0.00    -0.185 NA
ATOM     16  C   UNL A   1      45.724 -19.253 -40.701  0.00  0.00    +0.040 C 
ATOM     17  C   UNL A   1      45.433 -17.762 -40.838  0.00  0.00    -0.002 C 
ENDROOT
BRANCH   9  18
ATOM     18  N   UNL A   1      43.153 -20.201 -38.071  0.00  0.00    -0.275 NA
ATOM     19  C   UNL A   1      42.891 -20.302 -36.814  0.00  0.00    +0.034 C 
BRANCH  19  20
ATOM     20  C   UNL A   1      41.819 -21.194 -36.314  0.00  0.00    +0.035 A 
ATOM     21  C   UNL A   1      41.078 -21.949 -37.230  0.00  0.00    -0.046 A 
ATOM     22  C   UNL A   1      40.066 -22.792 -36.777  0.00  0.00    -0.019 A 
ATOM     23  C   UNL A   1      39.784 -22.891 -35.414  0.00  0.00    +0.124 A 
ATOM     24  C   UNL A   1      40.525 -22.135 -34.498  0.00  0.00    +0.022 A 
ATOM     25  C   UNL A   1      41.548 -21.280 -34.937  0.00  0.00    +0.132 A 
BRANCH  23  26
ATOM     26  O   UNL A   1      38.768 -23.755 -35.110  0.00  0.00    -0.495 OA
ATOM     27  C   UNL A   1      38.491 -23.979 -33.732  0.00  0.00    +0.079 C 
ENDBRANCH  23  26
BRANCH  25  28
ATOM     28  O   UNL A   1      42.320 -20.508 -34.107  0.00  0.00    -0.494 OA
ATOM     29  C   UNL A   1      41.703 -19.944 -32.957  0.00  0.00    +0.079 C 
ENDBRANCH  25  28
ENDBRANCH  19  20
ENDBRANCH   9  18
TORSDOF 4
ENDMDL
MODEL 7
REMARK VINA RESULT:    -6.861     18.401     21.009
REMARK INTER + INTRA:          -9.336
REMARK INTER:                  -8.513
REMARK INTRA:                  -0.823
REMARK UNBOUND:                -0.871
REMARK  Name = cpd111.pdb
REMARK  8 active torsions:
REMARK  status: ('A' for Active; 'I' for Inactive)
REMARK    1  A    between atoms: C_1  and  C_2
REMARK    2  A    between atoms: C_6  and  C_7
REMARK    3  A    between atoms: C_9  and  N_10
REMARK    4  A    between atoms: C_11  and  C_12
REMARK    5  A    between atoms: C_15  and  O_16
REMARK    6  A    between atoms: O_16  and  C_17
REMARK    7  A    between atoms: C_19  and  O_20
REMARK    8  A    between atoms: O_20  and  C_21
REMARK                            x       y       z     vdW  Elec       q    Type
REMARK                         _______ _______ _______ _____ _____    ______ ____
ROOT
ATOM      1  C   UNL A   1      44.764 -21.570 -42.264  0.00  0.00    -0.046 C 
ATOM      2  C   UNL A   1      44.220 -20.972 -41.005  0.00  0.00    -0.085 C 
ATOM      3  C   UNL A   1      44.290 -19.690 -40.584  0.00  0.00    -0.035 C 
ATOM      4  C   UNL A   1      44.999 -18.584 -41.349  0.00  0.00    +0.006 C 
ATOM      5  C   UNL A   1      44.187 -17.312 -41.435  0.00  0.00    -0.077 C 
ATOM      6  C   UNL A   1      43.190 -16.998 -40.591  0.00  0.00    -0.073 C 
ATOM      7  C   UNL A   1      42.409 -15.723 -40.700  0.00  0.00    -0.044 C 
ATOM      8  C   UNL A   1      42.802 -17.933 -39.465  0.00  0.00    +0.001 C 
ATOM      9  C   UNL A   1      43.773 -19.147 -39.245  0.00  0.00    +0.113 C 
ATOM     10  C   UNL A   1      44.980 -18.644 -38.433  0.00  0.00    -0.000 C 
ATOM     11  C   UNL A   1      45.116 -18.707 -37.096  0.00  0.00    -0.068 C 
ATOM     12  C   UNL A   1      46.297 -18.153 -36.372  0.00  0.00    +0.045 C 
ATOM     13  C   UNL A   1      47.067 -17.158 -37.229  0.00  0.00    +0.240 C 
ATOM     14  O   UNL A   1      47.690 -16.241 -36.697  0.00  0.00    -0.273 OA
ATOM     15  N   UNL A   1      47.121 -17.386 -38.583  0.00  0.00    -0.185 NA
ATOM     16  C   UNL A   1      46.162 -18.053 -39.147  0.00  0.00    +0.040 C 
ATOM     17  C   UNL A   1      46.323 -18.313 -40.641  0.00  0.00    -0.002 C 
ENDROOT
BRANCH   9  18
ATOM     18  N   UNL A   1      43.104 -20.184 -38.418  0.00  0.00    -0.275 NA
ATOM     19  C   UNL A   1      41.881 -20.015 -38.052  0.00  0.00    +0.034 C 
BRANCH  19  20
ATOM     20  C   UNL A   1      41.178 -21.010 -37.210  0.00  0.00    +0.035 A 
ATOM     21  C   UNL A   1      40.376 -21.978 -37.825  0.00  0.00    -0.046 A 
ATOM     22  C   UNL A   1      39.707 -22.921 -37.047  0.00  0.00    -0.019 A 
ATOM     23  C   UNL A   1      39.829 -22.909 -35.658  0.00  0.00    +0.124 A 
ATOM     24  C   UNL A   1      40.631 -21.940 -35.043  0.00  0.00    +0.022 A 
ATOM     25  C   UNL A   1      41.312 -20.982 -35.811  0.00  0.00    +0.132 A 
BRANCH  23  26
ATOM     26  O   UNL A   1      39.120 -23.890 -35.021  0.00  0.00    -0.495 OA
ATOM     27  C   UNL A   1      38.759 -23.659 -33.664  0.00  0.00    +0.079 C 
ENDBRANCH  23  26
BRANCH  25  28
ATOM     28  O   UNL A   1      42.116 -20.002 -35.288  0.00  0.00    -0.494 OA
ATOM     29  C   UNL A   1      42.541 -20.138 -33.938  0.00  0.00    +0.079 C 
ENDBRANCH  25  28
ENDBRANCH  19  20
ENDBRANCH   9  18
TORSDOF 4
ENDMDL
MODEL 8
REMARK VINA RESULT:    -6.831      2.530      4.371
REMARK INTER + INTRA:          -9.300
REMARK INTER:                  -8.370
REMARK INTRA:                  -0.929
REMARK UNBOUND:                -0.871
REMARK  Name = cpd111.pdb
REMARK  8 active torsions:
REMARK  status: ('A' for Active; 'I' for Inactive)
REMARK    1  A    between atoms: C_1  and  C_2
REMARK    2  A    between atoms: C_6  and  C_7
REMARK    3  A    between atoms: C_9  and  N_10
REMARK    4  A    between atoms: C_11  and  C_12
REMARK    5  A    between atoms: C_15  and  O_16
REMARK    6  A    between atoms: O_16  and  C_17
REMARK    7  A    between atoms: C_19  and  O_20
REMARK    8  A    between atoms: O_20  and  C_21
REMARK                            x       y       z     vdW  Elec       q    Type
REMARK                         _______ _______ _______ _____ _____    ______ ____
ROOT
ATOM      1  C   UNL A   1      34.302 -40.073 -32.424  0.00  0.00    -0.046 C 
ATOM      2  C   UNL A   1      34.397 -39.022 -31.363  0.00  0.00    -0.085 C 
ATOM      3  C   UNL A   1      35.063 -39.072 -30.188  0.00  0.00    -0.035 C 
ATOM      4  C   UNL A   1      35.845 -40.284 -29.708  0.00  0.00    +0.006 C 
ATOM      5  C   UNL A   1      37.206 -39.925 -29.154  0.00  0.00    -0.077 C 
ATOM      6  C   UNL A   1      37.535 -38.702 -28.703  0.00  0.00    -0.073 C 
ATOM      7  C   UNL A   1      38.893 -38.382 -28.153  0.00  0.00    -0.044 C 
ATOM      8  C   UNL A   1      36.532 -37.569 -28.728  0.00  0.00    +0.001 C 
ATOM      9  C   UNL A   1      35.067 -37.986 -29.103  0.00  0.00    +0.113 C 
ATOM     10  C   UNL A   1      34.404 -38.567 -27.840  0.00  0.00    -0.000 C 
ATOM     11  C   UNL A   1      33.643 -37.888 -26.964  0.00  0.00    -0.068 C 
ATOM     12  C   UNL A   1      33.072 -38.508 -25.732  0.00  0.00    +0.045 C 
ATOM     13  C   UNL A   1      33.790 -39.800 -25.368  0.00  0.00    +0.240 C 
ATOM     14  O   UNL A   1      33.857 -40.156 -24.193  0.00  0.00    -0.273 OA
ATOM     15  N   UNL A   1      34.255 -40.586 -26.396  0.00  0.00    -0.185 NA
ATOM     16  C   UNL A   1      34.554 -40.028 -27.527  0.00  0.00    +0.040 C 
ATOM     17  C   UNL A   1      35.009 -40.973 -28.635  0.00  0.00    -0.002 C 
ENDROOT
BRANCH   9  18
ATOM     18  N   UNL A   1      34.282 -36.784 -29.483  0.00  0.00    -0.275 NA
ATOM     19  C   UNL A   1      34.890 -35.670 -29.706  0.00  0.00    +0.034 C 
BRANCH  19  20
ATOM     20  C   UNL A   1      34.149 -34.440 -30.067  0.00  0.00    +0.035 A 
ATOM     21  C   UNL A   1      33.603 -33.650 -29.049  0.00  0.00    -0.046 A 
ATOM     22  C   UNL A   1      32.902 -32.490 -29.371  0.00  0.00    -0.019 A 
ATOM     23  C   UNL A   1      32.737 -32.109 -30.703  0.00  0.00    +0.124 A 
ATOM     24  C   UNL A   1      33.282 -32.900 -31.720  0.00  0.00    +0.022 A 
ATOM     25  C   UNL A   1      33.991 -34.072 -31.414  0.00  0.00    +0.132 A 
BRANCH  23  26
ATOM     26  O   UNL A   1      32.029 -30.950 -30.874  0.00  0.00    -0.495 OA
ATOM     27  C   UNL A   1      31.183 -30.538 -29.808  0.00  0.00    +0.079 C 
ENDBRANCH  23  26
BRANCH  25  28
ATOM     28  O   UNL A   1      34.556 -34.901 -32.350  0.00  0.00    -0.494 OA
ATOM     29  C   UNL A   1      33.686 -35.675 -33.166  0.00  0.00    +0.079 C 
ENDBRANCH  25  28
ENDBRANCH  19  20
ENDBRANCH   9  18
TORSDOF 4
ENDMDL
MODEL 9
REMARK VINA RESULT:    -6.659     19.271     21.822
REMARK INTER + INTRA:          -9.088
REMARK INTER:                  -8.187
REMARK INTRA:                  -0.900
REMARK UNBOUND:                -0.871
REMARK  Name = cpd111.pdb
REMARK  8 active torsions:
REMARK  status: ('A' for Active; 'I' for Inactive)
REMARK    1  A    between atoms: C_1  and  C_2
REMARK    2  A    between atoms: C_6  and  C_7
REMARK    3  A    between atoms: C_9  and  N_10
REMARK    4  A    between atoms: C_11  and  C_12
REMARK    5  A    between atoms: C_15  and  O_16
REMARK    6  A    between atoms: O_16  and  C_17
REMARK    7  A    between atoms: C_19  and  O_20
REMARK    8  A    between atoms: O_20  and  C_21
REMARK                            x       y       z     vdW  Elec       q    Type
REMARK                         _______ _______ _______ _____ _____    ______ ____
ROOT
ATOM      1  C   UNL A   1      45.926 -15.127 -40.527  0.00  0.00    -0.046 C 
ATOM      2  C   UNL A   1      45.031 -16.296 -40.265  0.00  0.00    -0.085 C 
ATOM      3  C   UNL A   1      45.374 -17.552 -39.901  0.00  0.00    -0.035 C 
ATOM      4  C   UNL A   1      46.809 -18.019 -39.716  0.00  0.00    +0.006 C 
ATOM      5  C   UNL A   1      47.008 -18.823 -38.451  0.00  0.00    -0.077 C 
ATOM      6  C   UNL A   1      46.017 -19.452 -37.796  0.00  0.00    -0.073 C 
ATOM      7  C   UNL A   1      46.251 -20.248 -36.547  0.00  0.00    -0.044 C 
ATOM      8  C   UNL A   1      44.591 -19.387 -38.297  0.00  0.00    +0.001 C 
ATOM      9  C   UNL A   1      44.413 -18.735 -39.713  0.00  0.00    +0.113 C 
ATOM     10  C   UNL A   1      44.754 -19.801 -40.771  0.00  0.00    -0.000 C 
ATOM     11  C   UNL A   1      43.875 -20.610 -41.389  0.00  0.00    -0.068 C 
ATOM     12  C   UNL A   1      44.285 -21.657 -42.370  0.00  0.00    +0.045 C 
ATOM     13  C   UNL A   1      45.766 -21.991 -42.251  0.00  0.00    +0.240 C 
ATOM     14  O   UNL A   1      46.168 -23.116 -42.542  0.00  0.00    -0.273 OA
ATOM     15  N   UNL A   1      46.626 -20.974 -41.912  0.00  0.00    -0.185 NA
ATOM     16  C   UNL A   1      46.176 -19.974 -41.221  0.00  0.00    +0.040 C 
ATOM     17  C   UNL A   1      47.177 -18.860 -40.934  0.00  0.00    -0.002 C 
ENDROOT
BRANCH   9  18
ATOM     18  N   UNL A   1      42.990 -18.364 -39.923  0.00  0.00    -0.275 NA
ATOM     19  C   UNL A   1      42.180 -18.355 -38.922  0.00  0.00    +0.034 C 
BRANCH  19  20
ATOM     20  C   UNL A   1      40.748 -18.013 -39.085  0.00  0.00    +0.035 A 
ATOM     21  C   UNL A   1      40.402 -16.819 -39.728  0.00  0.00    -0.046 A 
ATOM     22  C   UNL A   1      39.060 -16.482 -39.888  0.00  0.00    -0.019 A 
ATOM     23  C   UNL A   1      38.055 -17.325 -39.412  0.00  0.00    +0.124 A 
ATOM     24  C   UNL A   1      38.403 -18.518 -38.768  0.00  0.00    +0.022 A 
ATOM     25  C   UNL A   1      39.750 -18.873 -38.597  0.00  0.00    +0.132 A 
BRANCH  23  26
ATOM     26  O   UNL A   1      36.784 -16.871 -39.638  0.00  0.00    -0.495 OA
ATOM     27  C   UNL A   1      36.632 -15.768 -40.522  0.00  0.00    +0.079 C 
ENDBRANCH  23  26
BRANCH  25  28
ATOM     28  O   UNL A   1      40.174 -20.022 -37.979  0.00  0.00    -0.494 OA
ATOM     29  C   UNL A   1      39.653 -21.260 -38.445  0.00  0.00    +0.079 C 
ENDBRANCH  25  28
ENDBRANCH  19  20
ENDBRANCH   9  18
TORSDOF 4
ENDMDL
MODEL 10
REMARK VINA RESULT:    -6.618     17.903     20.429
REMARK INTER + INTRA:          -9.037
REMARK INTER:                  -8.224
REMARK INTRA:                  -0.814
REMARK UNBOUND:                -0.871
REMARK  Name = cpd111.pdb
REMARK  8 active torsions:
REMARK  status: ('A' for Active; 'I' for Inactive)
REMARK    1  A    between atoms: C_1  and  C_2
REMARK    2  A    between atoms: C_6  and  C_7
REMARK    3  A    between atoms: C_9  and  N_10
REMARK    4  A    between atoms: C_11  and  C_12
REMARK    5  A    between atoms: C_15  and  O_16
REMARK    6  A    between atoms: O_16  and  C_17
REMARK    7  A    between atoms: C_19  and  O_20
REMARK    8  A    between atoms: O_20  and  C_21
REMARK                            x       y       z     vdW  Elec       q    Type
REMARK                         _______ _______ _______ _____ _____    ______ ____
ROOT
ATOM      1  C   UNL A   1      47.400 -18.128 -34.783  0.00  0.00    -0.046 C 
ATOM      2  C   UNL A   1      46.183 -18.697 -35.441  0.00  0.00    -0.085 C 
ATOM      3  C   UNL A   1      45.987 -18.974 -36.749  0.00  0.00    -0.035 C 
ATOM      4  C   UNL A   1      47.018 -18.711 -37.835  0.00  0.00    +0.006 C 
ATOM      5  C   UNL A   1      47.179 -19.873 -38.789  0.00  0.00    -0.077 C 
ATOM      6  C   UNL A   1      46.252 -20.828 -38.974  0.00  0.00    -0.073 C 
ATOM      7  C   UNL A   1      46.441 -21.963 -39.934  0.00  0.00    -0.044 C 
ATOM      8  C   UNL A   1      44.947 -20.801 -38.208  0.00  0.00    +0.001 C 
ATOM      9  C   UNL A   1      44.688 -19.494 -37.380  0.00  0.00    +0.113 C 
ATOM     10  C   UNL A   1      44.161 -18.419 -38.348  0.00  0.00    -0.000 C 
ATOM     11  C   UNL A   1      42.868 -18.137 -38.588  0.00  0.00    -0.068 C 
ATOM     12  C   UNL A   1      42.430 -17.111 -39.579  0.00  0.00    +0.045 C 
ATOM     13  C   UNL A   1      43.543 -16.766 -40.560  0.00  0.00    +0.240 C 
ATOM     14  O   UNL A   1      43.265 -16.398 -41.700  0.00  0.00    -0.273 OA
ATOM     15  N   UNL A   1      44.836 -16.782 -40.094  0.00  0.00    -0.185 NA
ATOM     16  C   UNL A   1      45.132 -17.547 -39.091  0.00  0.00    +0.040 C 
ATOM     17  C   UNL A   1      46.573 -17.466 -38.597  0.00  0.00    -0.002 C 
ENDROOT
BRANCH   9  18
ATOM     18  N   UNL A   1      43.615 -19.733 -36.382  0.00  0.00    -0.275 NA
ATOM     19  C   UNL A   1      43.081 -20.902 -36.288  0.00  0.00    +0.034 C 
BRANCH  19  20
ATOM     20  C   UNL A   1      41.993 -21.184 -35.323  0.00  0.00    +0.035 A 
ATOM     21  C   UNL A   1      41.961 -20.486 -34.110  0.00  0.00    -0.046 A 
ATOM     22  C   UNL A   1      40.946 -20.740 -33.191  0.00  0.00    -0.019 A 
ATOM     23  C   UNL A   1      39.959 -21.686 -33.468  0.00  0.00    +0.124 A 
ATOM     24  C   UNL A   1      39.993 -22.385 -34.680  0.00  0.00    +0.022 A 
ATOM     25  C   UNL A   1      41.008 -22.142 -35.618  0.00  0.00    +0.132 A 
BRANCH  23  26
ATOM     26  O   UNL A   1      39.025 -21.833 -32.479  0.00  0.00    -0.495 OA
ATOM     27  C   UNL A   1      37.850 -21.035 -32.566  0.00  0.00    +0.079 C 
ENDBRANCH  23  26
BRANCH  25  28
ATOM     28  O   UNL A   1      41.113 -22.781 -36.827  0.00  0.00    -0.494 OA
ATOM     29  C   UNL A   1      40.200 -22.418 -37.854  0.00  0.00    +0.079 C 
ENDBRANCH  25  28
ENDBRANCH  19  20
ENDBRANCH   9  18
TORSDOF 4
ENDMDL
MODEL 11
REMARK VINA RESULT:    -6.566      3.448      6.598
REMARK INTER + INTRA:          -8.972
REMARK INTER:                  -8.113
REMARK INTRA:                  -0.859
REMARK UNBOUND:                -0.871
REMARK  Name = cpd111.pdb
REMARK  8 active torsions:
REMARK  status: ('A' for Active; 'I' for Inactive)
REMARK    1  A    between atoms: C_1  and  C_2
REMARK    2  A    between atoms: C_6  and  C_7
REMARK    3  A    between atoms: C_9  and  N_10
REMARK    4  A    between atoms: C_11  and  C_12
REMARK    5  A    between atoms: C_15  and  O_16
REMARK    6  A    between atoms: O_16  and  C_17
REMARK    7  A    between atoms: C_19  and  O_20
REMARK    8  A    between atoms: O_20  and  C_21
REMARK                            x       y       z     vdW  Elec       q    Type
REMARK                         _______ _______ _______ _____ _____    ______ ____
ROOT
ATOM      1  C   UNL A   1      30.715 -37.443 -31.653  0.00  0.00    -0.046 C 
ATOM      2  C   UNL A   1      31.600 -36.969 -30.542  0.00  0.00    -0.085 C 
ATOM      3  C   UNL A   1      32.530 -35.989 -30.569  0.00  0.00    -0.035 C 
ATOM      4  C   UNL A   1      32.873 -35.179 -31.808  0.00  0.00    +0.006 C 
ATOM      5  C   UNL A   1      32.971 -33.695 -31.533  0.00  0.00    -0.077 C 
ATOM      6  C   UNL A   1      33.190 -33.169 -30.317  0.00  0.00    -0.073 C 
ATOM      7  C   UNL A   1      33.290 -31.692 -30.080  0.00  0.00    -0.044 C 
ATOM      8  C   UNL A   1      33.352 -34.059 -29.103  0.00  0.00    +0.001 C 
ATOM      9  C   UNL A   1      33.460 -35.593 -29.414  0.00  0.00    +0.113 C 
ATOM     10  C   UNL A   1      34.910 -35.887 -29.843  0.00  0.00    -0.000 C 
ATOM     11  C   UNL A   1      35.902 -36.308 -29.039  0.00  0.00    -0.068 C 
ATOM     12  C   UNL A   1      37.299 -36.526 -29.518  0.00  0.00    +0.045 C 
ATOM     13  C   UNL A   1      37.557 -35.817 -30.840  0.00  0.00    +0.240 C 
ATOM     14  O   UNL A   1      38.690 -35.426 -31.117  0.00  0.00    -0.273 OA
ATOM     15  N   UNL A   1      36.517 -35.729 -31.734  0.00  0.00    -0.185 NA
ATOM     16  C   UNL A   1      35.301 -35.745 -31.286  0.00  0.00    +0.040 C 
ATOM     17  C   UNL A   1      34.202 -35.701 -32.344  0.00  0.00    -0.002 C 
ENDROOT
BRANCH   9  18
ATOM     18  N   UNL A   1      33.214 -36.377 -28.176  0.00  0.00    -0.275 NA
ATOM     19  C   UNL A   1      32.907 -35.765 -27.085  0.00  0.00    +0.034 C 
BRANCH  19  20
ATOM     20  C   UNL A   1      32.673 -36.501 -25.821  0.00  0.00    +0.035 A 
ATOM     21  C   UNL A   1      33.759 -37.094 -25.168  0.00  0.00    -0.046 A 
ATOM     22  C   UNL A   1      33.556 -37.792 -23.979  0.00  0.00    -0.019 A 
ATOM     23  C   UNL A   1      32.277 -37.905 -23.433  0.00  0.00    +0.124 A 
ATOM     24  C   UNL A   1      31.191 -37.313 -24.088  0.00  0.00    +0.022 A 
ATOM     25  C   UNL A   1      31.377 -36.607 -25.287  0.00  0.00    +0.132 A 
BRANCH  23  26
ATOM     26  O   UNL A   1      32.223 -38.615 -22.265  0.00  0.00    -0.495 OA
ATOM     27  C   UNL A   1      32.896 -38.069 -21.137  0.00  0.00    +0.079 C 
ENDBRANCH  23  26
BRANCH  25  28
ATOM     28  O   UNL A   1      30.369 -35.998 -25.990  0.00  0.00    -0.494 OA
ATOM     29  C   UNL A   1      29.224 -36.773 -26.320  0.00  0.00    +0.079 C 
ENDBRANCH  25  28
ENDBRANCH  19  20
ENDBRANCH   9  18
TORSDOF 4
ENDMDL
MODEL 12
REMARK VINA RESULT:    -6.564      2.718      4.407
REMARK INTER + INTRA:          -8.970
REMARK INTER:                  -8.105
REMARK INTRA:                  -0.865
REMARK UNBOUND:                -0.871
REMARK  Name = cpd111.pdb
REMARK  8 active torsions:
REMARK  status: ('A' for Active; 'I' for Inactive)
REMARK    1  A    between atoms: C_1  and  C_2
REMARK    2  A    between atoms: C_6  and  C_7
REMARK    3  A    between atoms: C_9  and  N_10
REMARK    4  A    between atoms: C_11  and  C_12
REMARK    5  A    between atoms: C_15  and  O_16
REMARK    6  A    between atoms: O_16  and  C_17
REMARK    7  A    between atoms: C_19  and  O_20
REMARK    8  A    between atoms: O_20  and  C_21
REMARK                            x       y       z     vdW  Elec       q    Type
REMARK                         _______ _______ _______ _____ _____    ______ ____
ROOT
ATOM      1  C   UNL A   1      38.064 -35.063 -31.225  0.00  0.00    -0.046 C 
ATOM      2  C   UNL A   1      36.635 -35.157 -30.791  0.00  0.00    -0.085 C 
ATOM      3  C   UNL A   1      36.038 -36.133 -30.072  0.00  0.00    -0.035 C 
ATOM      4  C   UNL A   1      36.751 -37.383 -29.583  0.00  0.00    +0.006 C 
ATOM      5  C   UNL A   1      36.446 -37.708 -28.138  0.00  0.00    -0.077 C 
ATOM      6  C   UNL A   1      35.361 -37.265 -27.481  0.00  0.00    -0.073 C 
ATOM      7  C   UNL A   1      35.085 -37.613 -26.049  0.00  0.00    -0.044 C 
ATOM      8  C   UNL A   1      34.346 -36.378 -28.168  0.00  0.00    +0.001 C 
ATOM      9  C   UNL A   1      34.547 -36.211 -29.715  0.00  0.00    +0.113 C 
ATOM     10  C   UNL A   1      33.953 -37.453 -30.405  0.00  0.00    -0.000 C 
ATOM     11  C   UNL A   1      32.709 -37.561 -30.904  0.00  0.00    -0.068 C 
ATOM     12  C   UNL A   1      32.185 -38.816 -31.518  0.00  0.00    +0.045 C 
ATOM     13  C   UNL A   1      33.018 -40.027 -31.120  0.00  0.00    +0.240 C 
ATOM     14  O   UNL A   1      32.496 -41.138 -31.055  0.00  0.00    -0.273 OA
ATOM     15  N   UNL A   1      34.369 -39.845 -30.944  0.00  0.00    -0.185 NA
ATOM     16  C   UNL A   1      34.806 -38.673 -30.602  0.00  0.00    +0.040 C 
ATOM     17  C   UNL A   1      36.321 -38.538 -30.482  0.00  0.00    -0.002 C 
ENDROOT
BRANCH   9  18
ATOM     18  N   UNL A   1      33.773 -35.041 -30.202  0.00  0.00    -0.275 NA
ATOM     19  C   UNL A   1      33.197 -34.261 -29.353  0.00  0.00    +0.034 C 
BRANCH  19  20
ATOM     20  C   UNL A   1      32.397 -33.094 -29.791  0.00  0.00    +0.035 A 
ATOM     21  C   UNL A   1      33.040 -31.871 -30.014  0.00  0.00    -0.046 A 
ATOM     22  C   UNL A   1      32.302 -30.763 -30.424  0.00  0.00    -0.019 A 
ATOM     23  C   UNL A   1      30.923 -30.861 -30.614  0.00  0.00    +0.124 A 
ATOM     24  C   UNL A   1      30.280 -32.084 -30.389  0.00  0.00    +0.022 A 
ATOM     25  C   UNL A   1      31.008 -33.210 -29.975  0.00  0.00    +0.132 A 
BRANCH  23  26
ATOM     26  O   UNL A   1      30.325 -29.699 -31.018  0.00  0.00    -0.495 OA
ATOM     27  C   UNL A   1      29.132 -29.810 -31.784  0.00  0.00    +0.079 C 
ENDBRANCH  23  26
BRANCH  25  28
ATOM     28  O   UNL A   1      30.456 -34.443 -29.735  0.00  0.00    -0.494 OA
ATOM     29  C   UNL A   1      29.480 -34.546 -28.706  0.00  0.00    +0.079 C 
ENDBRANCH  25  28
ENDBRANCH  19  20
ENDBRANCH   9  18
TORSDOF 4
ENDMDL
MODEL 13
REMARK VINA RESULT:    -6.483     16.683     19.846
REMARK INTER + INTRA:          -8.870
REMARK INTER:                  -8.017
REMARK INTRA:                  -0.852
REMARK UNBOUND:                -0.871
REMARK  Name = cpd111.pdb
REMARK  8 active torsions:
REMARK  status: ('A' for Active; 'I' for Inactive)
REMARK    1  A    between atoms: C_1  and  C_2
REMARK    2  A    between atoms: C_6  and  C_7
REMARK    3  A    between atoms: C_9  and  N_10
REMARK    4  A    between atoms: C_11  and  C_12
REMARK    5  A    between atoms: C_15  and  O_16
REMARK    6  A    between atoms: O_16  and  C_17
REMARK    7  A    between atoms: C_19  and  O_20
REMARK    8  A    between atoms: O_20  and  C_21
REMARK                            x       y       z     vdW  Elec       q    Type
REMARK                         _______ _______ _______ _____ _____    ______ ____
ROOT
ATOM      1  C   UNL A   1      40.442 -22.205 -38.118  0.00  0.00    -0.046 C 
ATOM      2  C   UNL A   1      40.921 -21.361 -36.979  0.00  0.00    -0.085 C 
ATOM      3  C   UNL A   1      40.492 -21.357 -35.697  0.00  0.00    -0.035 C 
ATOM      4  C   UNL A   1      39.367 -22.238 -35.177  0.00  0.00    +0.006 C 
ATOM      5  C   UNL A   1      39.701 -22.906 -33.862  0.00  0.00    -0.077 C 
ATOM      6  C   UNL A   1      40.642 -22.463 -33.012  0.00  0.00    -0.073 C 
ATOM      7  C   UNL A   1      40.944 -23.146 -31.712  0.00  0.00    -0.044 C 
ATOM      8  C   UNL A   1      41.458 -21.228 -33.331  0.00  0.00    +0.001 C 
ATOM      9  C   UNL A   1      40.974 -20.417 -34.584  0.00  0.00    +0.113 C 
ATOM     10  C   UNL A   1      39.785 -19.540 -34.149  0.00  0.00    -0.000 C 
ATOM     11  C   UNL A   1      39.854 -18.258 -33.747  0.00  0.00    -0.068 C 
ATOM     12  C   UNL A   1      38.662 -17.484 -33.292  0.00  0.00    +0.045 C 
ATOM     13  C   UNL A   1      37.504 -18.401 -32.920  0.00  0.00    +0.240 C 
ATOM     14  O   UNL A   1      36.692 -18.049 -32.067  0.00  0.00    -0.273 OA
ATOM     15  N   UNL A   1      37.351 -19.563 -33.638  0.00  0.00    -0.185 NA
ATOM     16  C   UNL A   1      38.393 -20.101 -34.191  0.00  0.00    +0.040 C 
ATOM     17  C   UNL A   1      38.132 -21.357 -35.017  0.00  0.00    -0.002 C 
ENDROOT
BRANCH   9  18
ATOM     18  N   UNL A   1      42.046 -19.492 -35.031  0.00  0.00    -0.275 NA
ATOM     19  C   UNL A   1      43.280 -19.800 -34.825  0.00  0.00    +0.034 C 
BRANCH  19  20
ATOM     20  C   UNL A   1      44.383 -18.900 -35.234  0.00  0.00    +0.035 A 
ATOM     21  C   UNL A   1      44.573 -18.628 -36.593  0.00  0.00    -0.046 A 
ATOM     22  C   UNL A   1      45.607 -17.785 -36.994  0.00  0.00    -0.019 A 
ATOM     23  C   UNL A   1      46.458 -17.209 -36.051  0.00  0.00    +0.124 A 
ATOM     24  C   UNL A   1      46.268 -17.482 -34.692  0.00  0.00    +0.022 A 
ATOM     25  C   UNL A   1      45.232 -18.329 -34.269  0.00  0.00    +0.132 A 
BRANCH  23  26
ATOM     26  O   UNL A   1      47.427 -16.403 -36.583  0.00  0.00    -0.495 OA
ATOM     27  C   UNL A   1      47.285 -16.024 -37.947  0.00  0.00    +0.079 C 
ENDBRANCH  23  26
BRANCH  25  28
ATOM     28  O   UNL A   1      44.978 -18.647 -32.959  0.00  0.00    -0.494 OA
ATOM     29  C   UNL A   1      44.574 -17.600 -32.086  0.00  0.00    +0.079 C 
ENDBRANCH  25  28
ENDBRANCH  19  20
ENDBRANCH   9  18
TORSDOF 4
ENDMDL
MODEL 14
REMARK VINA RESULT:    -6.405      2.830      7.204
REMARK INTER + INTRA:          -8.774
REMARK INTER:                  -8.801
REMARK INTRA:                   0.027
REMARK UNBOUND:                -0.871
REMARK  Name = cpd111.pdb
REMARK  8 active torsions:
REMARK  status: ('A' for Active; 'I' for Inactive)
REMARK    1  A    between atoms: C_1  and  C_2
REMARK    2  A    between atoms: C_6  and  C_7
REMARK    3  A    between atoms: C_9  and  N_10
REMARK    4  A    between atoms: C_11  and  C_12
REMARK    5  A    between atoms: C_15  and  O_16
REMARK    6  A    between atoms: O_16  and  C_17
REMARK    7  A    between atoms: C_19  and  O_20
REMARK    8  A    between atoms: O_20  and  C_21
REMARK                            x       y       z     vdW  Elec       q    Type
REMARK                         _______ _______ _______ _____ _____    ______ ____
ROOT
ATOM      1  C   UNL A   1      34.199 -32.341 -29.766  0.00  0.00    -0.046 C 
ATOM      2  C   UNL A   1      34.436 -33.686 -30.377  0.00  0.00    -0.085 C 
ATOM      3  C   UNL A   1      33.536 -34.658 -30.644  0.00  0.00    -0.035 C 
ATOM      4  C   UNL A   1      32.054 -34.552 -30.324  0.00  0.00    +0.006 C 
ATOM      5  C   UNL A   1      31.171 -35.003 -31.466  0.00  0.00    -0.077 C 
ATOM      6  C   UNL A   1      31.578 -35.815 -32.456  0.00  0.00    -0.073 C 
ATOM      7  C   UNL A   1      30.673 -36.248 -33.570  0.00  0.00    -0.044 C 
ATOM      8  C   UNL A   1      32.996 -36.342 -32.494  0.00  0.00    +0.001 C 
ATOM      9  C   UNL A   1      33.849 -36.050 -31.209  0.00  0.00    +0.113 C 
ATOM     10  C   UNL A   1      33.471 -37.096 -30.144  0.00  0.00    -0.000 C 
ATOM     11  C   UNL A   1      34.111 -38.256 -29.913  0.00  0.00    -0.068 C 
ATOM     12  C   UNL A   1      33.656 -39.246 -28.893  0.00  0.00    +0.045 C 
ATOM     13  C   UNL A   1      32.207 -39.013 -28.489  0.00  0.00    +0.240 C 
ATOM     14  O   UNL A   1      31.513 -39.958 -28.118  0.00  0.00    -0.273 OA
ATOM     15  N   UNL A   1      31.751 -37.717 -28.458  0.00  0.00    -0.185 NA
ATOM     16  C   UNL A   1      32.314 -36.834 -29.223  0.00  0.00    +0.040 C 
ATOM     17  C   UNL A   1      31.790 -35.408 -29.089  0.00  0.00    -0.002 C 
ENDROOT
BRANCH   9  18
ATOM     18  N   UNL A   1      35.291 -36.245 -31.506  0.00  0.00    -0.275 NA
ATOM     19  C   UNL A   1      36.155 -36.151 -30.556  0.00  0.00    +0.034 C 
BRANCH  19  20
ATOM     20  C   UNL A   1      37.606 -36.317 -30.807  0.00  0.00    +0.035 A 
ATOM     21  C   UNL A   1      38.160 -35.783 -31.975  0.00  0.00    -0.046 A 
ATOM     22  C   UNL A   1      39.522 -35.931 -32.227  0.00  0.00    -0.019 A 
ATOM     23  C   UNL A   1      40.341 -36.608 -31.324  0.00  0.00    +0.124 A 
ATOM     24  C   UNL A   1      39.785 -37.143 -30.156  0.00  0.00    +0.022 A 
ATOM     25  C   UNL A   1      38.415 -37.004 -29.886  0.00  0.00    +0.132 A 
BRANCH  23  26
ATOM     26  O   UNL A   1      41.655 -36.678 -31.696  0.00  0.00    -0.495 OA
ATOM     27  C   UNL A   1      42.276 -37.958 -31.665  0.00  0.00    +0.079 C 
ENDBRANCH  23  26
BRANCH  25  28
ATOM     28  O   UNL A   1      37.793 -37.497 -28.766  0.00  0.00    -0.494 OA
ATOM     29  C   UNL A   1      37.774 -38.906 -28.581  0.00  0.00    +0.079 C 
ENDBRANCH  25  28
ENDBRANCH  19  20
ENDBRANCH   9  18
TORSDOF 4
ENDMDL
MODEL 15
REMARK VINA RESULT:    -6.356     15.563     18.924
REMARK INTER + INTRA:          -8.714
REMARK INTER:                  -7.890
REMARK INTRA:                  -0.823
REMARK UNBOUND:                -0.871
REMARK  Name = cpd111.pdb
REMARK  8 active torsions:
REMARK  status: ('A' for Active; 'I' for Inactive)
REMARK    1  A    between atoms: C_1  and  C_2
REMARK    2  A    between atoms: C_6  and  C_7
REMARK    3  A    between atoms: C_9  and  N_10
REMARK    4  A    between atoms: C_11  and  C_12
REMARK    5  A    between atoms: C_15  and  O_16
REMARK    6  A    between atoms: O_16  and  C_17
REMARK    7  A    between atoms: C_19  and  O_20
REMARK    8  A    between atoms: O_20  and  C_21
REMARK                            x       y       z     vdW  Elec       q    Type
REMARK                         _______ _______ _______ _____ _____    ______ ____
ROOT
ATOM      1  C   UNL A   1      41.766 -17.654 -33.304  0.00  0.00    -0.046 C 
ATOM      2  C   UNL A   1      41.202 -18.576 -34.338  0.00  0.00    -0.085 C 
ATOM      3  C   UNL A   1      39.955 -19.092 -34.413  0.00  0.00    -0.035 C 
ATOM      4  C   UNL A   1      38.866 -18.831 -33.386  0.00  0.00    +0.006 C 
ATOM      5  C   UNL A   1      37.531 -18.497 -34.013  0.00  0.00    -0.077 C 
ATOM      6  C   UNL A   1      37.190 -18.822 -35.272  0.00  0.00    -0.073 C 
ATOM      7  C   UNL A   1      35.854 -18.482 -35.861  0.00  0.00    -0.044 C 
ATOM      8  C   UNL A   1      38.156 -19.563 -36.172  0.00  0.00    +0.001 C 
ATOM      9  C   UNL A   1      39.452 -20.093 -35.463  0.00  0.00    +0.113 C 
ATOM     10  C   UNL A   1      39.092 -21.405 -34.741  0.00  0.00    -0.000 C 
ATOM     11  C   UNL A   1      39.244 -22.646 -35.235  0.00  0.00    -0.068 C 
ATOM     12  C   UNL A   1      38.826 -23.873 -34.495  0.00  0.00    +0.045 C 
ATOM     13  C   UNL A   1      37.846 -23.548 -33.376  0.00  0.00    +0.240 C 
ATOM     14  O   UNL A   1      37.012 -24.382 -33.028  0.00  0.00    -0.273 OA
ATOM     15  N   UNL A   1      37.999 -22.351 -32.718  0.00  0.00    -0.185 NA
ATOM     16  C   UNL A   1      38.555 -21.359 -33.340  0.00  0.00    +0.040 C 
ATOM     17  C   UNL A   1      38.740 -20.083 -32.523  0.00  0.00    -0.002 C 
ENDROOT
BRANCH   9  18
ATOM     18  N   UNL A   1      40.480 -20.433 -36.480  0.00  0.00    -0.275 NA
ATOM     19  C   UNL A   1      40.318 -20.053 -37.700  0.00  0.00    +0.034 C 
BRANCH  19  20
ATOM     20  C   UNL A   1      41.305 -20.386 -38.753  0.00  0.00    +0.035 A 
ATOM     21  C   UNL A   1      40.982 -21.357 -39.707  0.00  0.00    -0.046 A 
ATOM     22  C   UNL A   1      41.899 -21.684 -40.704  0.00  0.00    -0.019 A 
ATOM     23  C   UNL A   1      43.140 -21.049 -40.759  0.00  0.00    +0.124 A 
ATOM     24  C   UNL A   1      43.463 -20.079 -39.804  0.00  0.00    +0.022 A 
ATOM     25  C   UNL A   1      42.552 -19.738 -38.793  0.00  0.00    +0.132 A 
BRANCH  23  26
ATOM     26  O   UNL A   1      43.941 -21.465 -41.788  0.00  0.00    -0.495 OA
ATOM     27  C   UNL A   1      45.257 -20.929 -41.849  0.00  0.00    +0.079 C 
ENDBRANCH  23  26
BRANCH  25  28
ATOM     28  O   UNL A   1      42.789 -18.799 -37.822  0.00  0.00    -0.494 OA
ATOM     29  C   UNL A   1      43.871 -19.025 -36.927  0.00  0.00    +0.079 C 
ENDBRANCH  25  28
ENDBRANCH  19  20
ENDBRANCH   9  18
TORSDOF 4
ENDMDL
MODEL 16
REMARK VINA RESULT:    -6.329     18.301     20.996
REMARK INTER + INTRA:          -8.680
REMARK INTER:                  -7.851
REMARK INTRA:                  -0.830
REMARK UNBOUND:                -0.871
REMARK  Name = cpd111.pdb
REMARK  8 active torsions:
REMARK  status: ('A' for Active; 'I' for Inactive)
REMARK    1  A    between atoms: C_1  and  C_2
REMARK    2  A    between atoms: C_6  and  C_7
REMARK    3  A    between atoms: C_9  and  N_10
REMARK    4  A    between atoms: C_11  and  C_12
REMARK    5  A    between atoms: C_15  and  O_16
REMARK    6  A    between atoms: O_16  and  C_17
REMARK    7  A    between atoms: C_19  and  O_20
REMARK    8  A    between atoms: O_20  and  C_21
REMARK                            x       y       z     vdW  Elec       q    Type
REMARK                         _______ _______ _______ _____ _____    ______ ____
ROOT
ATOM      1  C   UNL A   1      44.286 -14.927 -36.881  0.00  0.00    -0.046 C 
ATOM      2  C   UNL A   1      44.335 -16.389 -36.564  0.00  0.00    -0.085 C 
ATOM      3  C   UNL A   1      45.391 -17.229 -36.636  0.00  0.00    -0.035 C 
ATOM      4  C   UNL A   1      46.775 -16.812 -37.106  0.00  0.00    +0.006 C 
ATOM      5  C   UNL A   1      47.881 -17.331 -36.214  0.00  0.00    -0.077 C 
ATOM      6  C   UNL A   1      47.750 -18.384 -35.390  0.00  0.00    -0.073 C 
ATOM      7  C   UNL A   1      48.870 -18.877 -34.524  0.00  0.00    -0.044 C 
ATOM      8  C   UNL A   1      46.442 -19.139 -35.297  0.00  0.00    +0.001 C 
ATOM      9  C   UNL A   1      45.365 -18.740 -36.366  0.00  0.00    +0.113 C 
ATOM     10  C   UNL A   1      45.711 -19.468 -37.679  0.00  0.00    -0.000 C 
ATOM     11  C   UNL A   1      45.208 -20.647 -38.084  0.00  0.00    -0.068 C 
ATOM     12  C   UNL A   1      45.628 -21.318 -39.350  0.00  0.00    +0.045 C 
ATOM     13  C   UNL A   1      46.950 -20.767 -39.867  0.00  0.00    +0.240 C 
ATOM     14  O   UNL A   1      47.700 -21.485 -40.524  0.00  0.00    -0.273 OA
ATOM     15  N   UNL A   1      47.212 -19.433 -39.661  0.00  0.00    -0.185 NA
ATOM     16  C   UNL A   1      46.661 -18.833 -38.653  0.00  0.00    +0.040 C 
ATOM     17  C   UNL A   1      46.956 -17.342 -38.525  0.00  0.00    -0.002 C 
ENDROOT
BRANCH   9  18
ATOM     18  N   UNL A   1      44.029 -19.231 -35.945  0.00  0.00    -0.275 NA
ATOM     19  C   UNL A   1      43.817 -19.517 -34.707  0.00  0.00    +0.034 C 
BRANCH  19  20
ATOM     20  C   UNL A   1      42.507 -20.030 -34.242  0.00  0.00    +0.035 A 
ATOM     21  C   UNL A   1      41.971 -21.174 -34.844  0.00  0.00    -0.046 A 
ATOM     22  C   UNL A   1      40.739 -21.669 -34.420  0.00  0.00    -0.019 A 
ATOM     23  C   UNL A   1      40.034 -21.033 -33.398  0.00  0.00    +0.124 A 
ATOM     24  C   UNL A   1      40.571 -19.888 -32.797  0.00  0.00    +0.022 A 
ATOM     25  C   UNL A   1      41.810 -19.376 -33.212  0.00  0.00    +0.132 A 
BRANCH  23  26
ATOM     26  O   UNL A   1      38.842 -21.625 -33.082  0.00  0.00    -0.495 OA
ATOM     27  C   UNL A   1      37.921 -20.867 -32.307  0.00  0.00    +0.079 C 
ENDBRANCH  23  26
BRANCH  25  28
ATOM     28  O   UNL A   1      42.405 -18.262 -32.676  0.00  0.00    -0.494 OA
ATOM     29  C   UNL A   1      41.871 -16.991 -33.020  0.00  0.00    +0.079 C 
ENDBRANCH  25  28
ENDBRANCH  19  20
ENDBRANCH   9  18
TORSDOF 4
ENDMDL
MODEL 17
REMARK VINA RESULT:    -6.272     22.695     25.287
REMARK INTER + INTRA:          -8.610
REMARK INTER:                  -7.816
REMARK INTRA:                  -0.794
REMARK UNBOUND:                -0.871
REMARK  Name = cpd111.pdb
REMARK  8 active torsions:
REMARK  status: ('A' for Active; 'I' for Inactive)
REMARK    1  A    between atoms: C_1  and  C_2
REMARK    2  A    between atoms: C_6  and  C_7
REMARK    3  A    between atoms: C_9  and  N_10
REMARK    4  A    between atoms: C_11  and  C_12
REMARK    5  A    between atoms: C_15  and  O_16
REMARK    6  A    between atoms: O_16  and  C_17
REMARK    7  A    between atoms: C_19  and  O_20
REMARK    8  A    between atoms: O_20  and  C_21
REMARK                            x       y       z     vdW  Elec       q    Type
REMARK                         _______ _______ _______ _____ _____    ______ ____
ROOT
ATOM      1  C   UNL A   1      47.199 -18.118 -35.428  0.00  0.00    -0.046 C 
ATOM      2  C   UNL A   1      47.170 -17.734 -36.874  0.00  0.00    -0.085 C 
ATOM      3  C   UNL A   1      46.286 -18.108 -37.825  0.00  0.00    -0.035 C 
ATOM      4  C   UNL A   1      45.125 -19.057 -37.577  0.00  0.00    +0.006 C 
ATOM      5  C   UNL A   1      43.826 -18.570 -38.179  0.00  0.00    -0.077 C 
ATOM      6  C   UNL A   1      43.750 -17.678 -39.181  0.00  0.00    -0.073 C 
ATOM      7  C   UNL A   1      42.445 -17.222 -39.760  0.00  0.00    -0.044 C 
ATOM      8  C   UNL A   1      45.002 -17.082 -39.788  0.00  0.00    +0.001 C 
ATOM      9  C   UNL A   1      46.347 -17.738 -39.314  0.00  0.00    +0.113 C 
ATOM     10  C   UNL A   1      46.552 -19.032 -40.122  0.00  0.00    -0.000 C 
ATOM     11  C   UNL A   1      47.268 -19.152 -41.254  0.00  0.00    -0.068 C 
ATOM     12  C   UNL A   1      47.382 -20.433 -42.012  0.00  0.00    +0.045 C 
ATOM     13  C   UNL A   1      46.285 -21.415 -41.625  0.00  0.00    +0.240 C 
ATOM     14  O   UNL A   1      45.881 -22.239 -42.444  0.00  0.00    -0.273 OA
ATOM     15  N   UNL A   1      45.850 -21.409 -40.321  0.00  0.00    -0.185 NA
ATOM     16  C   UNL A   1      45.954 -20.319 -39.629  0.00  0.00    +0.040 C 
ATOM     17  C   UNL A   1      45.504 -20.409 -38.174  0.00  0.00    -0.002 C 
ENDROOT
BRANCH   9  18
ATOM     18  N   UNL A   1      47.487 -16.844 -39.642  0.00  0.00    -0.275 NA
ATOM     19  C   UNL A   1      47.291 -15.575 -39.748  0.00  0.00    +0.034 C 
BRANCH  19  20
ATOM     20  C   UNL A   1      48.392 -14.646 -40.094  0.00  0.00    +0.035 A 
ATOM     21  C   UNL A   1      48.796 -14.537 -41.429  0.00  0.00    -0.046 A 
ATOM     22  C   UNL A   1      49.831 -13.670 -41.773  0.00  0.00    -0.019 A 
ATOM     23  C   UNL A   1      50.470 -12.907 -40.794  0.00  0.00    +0.124 A 
ATOM     24  C   UNL A   1      50.066 -13.017 -39.459  0.00  0.00    +0.022 A 
ATOM     25  C   UNL A   1      49.025 -13.887 -39.095  0.00  0.00    +0.132 A 
BRANCH  23  26
ATOM     26  O   UNL A   1      51.466 -12.099 -41.271  0.00  0.00    -0.495 OA
ATOM     27  C   UNL A   1      51.531 -10.773 -40.760  0.00  0.00    +0.079 C 
ENDBRANCH  23  26
BRANCH  25  28
ATOM     28  O   UNL A   1      48.569 -14.053 -37.813  0.00  0.00    -0.494 OA
ATOM     29  C   UNL A   1      47.782 -13.013 -37.245  0.00  0.00    +0.079 C 
ENDBRANCH  25  28
ENDBRANCH  19  20
ENDBRANCH   9  18
TORSDOF 4
ENDMDL
MODEL 18
REMARK VINA RESULT:    -6.265     16.538     19.675
REMARK INTER + INTRA:          -8.601
REMARK INTER:                  -7.775
REMARK INTRA:                  -0.826
REMARK UNBOUND:                -0.871
REMARK  Name = cpd111.pdb
REMARK  8 active torsions:
REMARK  status: ('A' for Active; 'I' for Inactive)
REMARK    1  A    between atoms: C_1  and  C_2
REMARK    2  A    between atoms: C_6  and  C_7
REMARK    3  A    between atoms: C_9  and  N_10
REMARK    4  A    between atoms: C_11  and  C_12
REMARK    5  A    between atoms: C_15  and  O_16
REMARK    6  A    between atoms: O_16  and  C_17
REMARK    7  A    between atoms: C_19  and  O_20
REMARK    8  A    between atoms: O_20  and  C_21
REMARK                            x       y       z     vdW  Elec       q    Type
REMARK                         _______ _______ _______ _____ _____    ______ ____
ROOT
ATOM      1  C   UNL A   1      44.498 -17.706 -33.168  0.00  0.00    -0.046 C 
ATOM      2  C   UNL A   1      43.778 -18.528 -34.190  0.00  0.00    -0.085 C 
ATOM      3  C   UNL A   1      42.450 -18.749 -34.307  0.00  0.00    -0.035 C 
ATOM      4  C   UNL A   1      41.410 -18.191 -33.349  0.00  0.00    +0.006 C 
ATOM      5  C   UNL A   1      40.215 -17.594 -34.058  0.00  0.00    -0.077 C 
ATOM      6  C   UNL A   1      39.859 -17.899 -35.317  0.00  0.00    -0.073 C 
ATOM      7  C   UNL A   1      38.663 -17.293 -35.989  0.00  0.00    -0.044 C 
ATOM      8  C   UNL A   1      40.663 -18.888 -36.134  0.00  0.00    +0.001 C 
ATOM      9  C   UNL A   1      41.771 -19.662 -35.337  0.00  0.00    +0.113 C 
ATOM     10  C   UNL A   1      41.089 -20.816 -34.580  0.00  0.00    -0.000 C 
ATOM     11  C   UNL A   1      40.969 -22.084 -35.012  0.00  0.00    -0.068 C 
ATOM     12  C   UNL A   1      40.249 -23.141 -34.242  0.00  0.00    +0.045 C 
ATOM     13  C   UNL A   1      39.327 -22.541 -33.190  0.00  0.00    +0.240 C 
ATOM     14  O   UNL A   1      38.310 -23.142 -32.851  0.00  0.00    -0.273 OA
ATOM     15  N   UNL A   1      39.726 -21.377 -32.577  0.00  0.00    -0.185 NA
ATOM     16  C   UNL A   1      40.521 -20.573 -33.211  0.00  0.00    +0.040 C 
ATOM     17  C   UNL A   1      40.963 -19.333 -32.442  0.00  0.00    -0.002 C 
ENDROOT
BRANCH   9  18
ATOM     18  N   UNL A   1      42.733 -20.282 -36.284  0.00  0.00    -0.275 NA
ATOM     19  C   UNL A   1      42.982 -19.704 -37.408  0.00  0.00    +0.034 C 
BRANCH  19  20
ATOM     20  C   UNL A   1      43.917 -20.295 -38.394  0.00  0.00    +0.035 A 
ATOM     21  C   UNL A   1      45.295 -20.196 -38.170  0.00  0.00    -0.046 A 
ATOM     22  C   UNL A   1      46.188 -20.745 -39.088  0.00  0.00    -0.019 A 
ATOM     23  C   UNL A   1      45.720 -21.392 -40.231  0.00  0.00    +0.124 A 
ATOM     24  C   UNL A   1      44.342 -21.489 -40.455  0.00  0.00    +0.022 A 
ATOM     25  C   UNL A   1      43.428 -20.942 -39.542  0.00  0.00    +0.132 A 
BRANCH  23  26
ATOM     26  O   UNL A   1      46.705 -21.883 -41.044  0.00  0.00    -0.495 OA
ATOM     27  C   UNL A   1      47.113 -23.230 -40.836  0.00  0.00    +0.079 C 
ENDBRANCH  23  26
BRANCH  25  28
ATOM     28  O   UNL A   1      42.065 -20.995 -39.686  0.00  0.00    -0.494 OA
ATOM     29  C   UNL A   1      41.438 -22.269 -39.629  0.00  0.00    +0.079 C 
ENDBRANCH  25  28
ENDBRANCH  19  20
ENDBRANCH   9  18
TORSDOF 4
ENDMDL
MODEL 19
REMARK VINA RESULT:    -6.166     18.135     20.665
REMARK INTER + INTRA:          -8.480
REMARK INTER:                  -7.957
REMARK INTRA:                  -0.522
REMARK UNBOUND:                -0.871
REMARK  Name = cpd111.pdb
REMARK  8 active torsions:
REMARK  status: ('A' for Active; 'I' for Inactive)
REMARK    1  A    between atoms: C_1  and  C_2
REMARK    2  A    between atoms: C_6  and  C_7
REMARK    3  A    between atoms: C_9  and  N_10
REMARK    4  A    between atoms: C_11  and  C_12
REMARK    5  A    between atoms: C_15  and  O_16
REMARK    6  A    between atoms: O_16  and  C_17
REMARK    7  A    between atoms: C_19  and  O_20
REMARK    8  A    between atoms: O_20  and  C_21
REMARK                            x       y       z     vdW  Elec       q    Type
REMARK                         _______ _______ _______ _____ _____    ______ ____
ROOT
ATOM      1  C   UNL A   1      43.746 -15.141 -37.521  0.00  0.00    -0.046 C 
ATOM      2  C   UNL A   1      43.854 -16.619 -37.316  0.00  0.00    -0.085 C 
ATOM      3  C   UNL A   1      44.958 -17.397 -37.377  0.00  0.00    -0.035 C 
ATOM      4  C   UNL A   1      46.345 -16.875 -37.712  0.00  0.00    +0.006 C 
ATOM      5  C   UNL A   1      47.415 -17.408 -36.786  0.00  0.00    -0.077 C 
ATOM      6  C   UNL A   1      47.287 -18.530 -36.058  0.00  0.00    -0.073 C 
ATOM      7  C   UNL A   1      48.372 -19.035 -35.154  0.00  0.00    -0.044 C 
ATOM      8  C   UNL A   1      46.020 -19.355 -36.117  0.00  0.00    +0.001 C 
ATOM      9  C   UNL A   1      44.998 -18.924 -37.227  0.00  0.00    +0.113 C 
ATOM     10  C   UNL A   1      45.471 -19.525 -38.563  0.00  0.00    -0.000 C 
ATOM     11  C   UNL A   1      45.063 -20.691 -39.094  0.00  0.00    -0.068 C 
ATOM     12  C   UNL A   1      45.604 -21.236 -40.374  0.00  0.00    +0.045 C 
ATOM     13  C   UNL A   1      46.925 -20.579 -40.751  0.00  0.00    +0.240 C 
ATOM     14  O   UNL A   1      47.756 -21.204 -41.406  0.00  0.00    -0.273 OA
ATOM     15  N   UNL A   1      47.098 -19.256 -40.424  0.00  0.00    -0.185 NA
ATOM     16  C   UNL A   1      46.449 -18.767 -39.415  0.00  0.00    +0.040 C 
ATOM     17  C   UNL A   1      46.651 -17.278 -39.152  0.00  0.00    -0.002 C 
ENDROOT
BRANCH   9  18
ATOM     18  N   UNL A   1      43.665 -19.514 -36.941  0.00  0.00    -0.275 NA
ATOM     19  C   UNL A   1      43.582 -20.591 -36.241  0.00  0.00    +0.034 C 
BRANCH  19  20
ATOM     20  C   UNL A   1      42.277 -21.228 -35.948  0.00  0.00    +0.035 A 
ATOM     21  C   UNL A   1      41.731 -21.103 -34.665  0.00  0.00    -0.046 A 
ATOM     22  C   UNL A   1      40.505 -21.698 -34.372  0.00  0.00    -0.019 A 
ATOM     23  C   UNL A   1      39.816 -22.418 -35.348  0.00  0.00    +0.124 A 
ATOM     24  C   UNL A   1      40.363 -22.543 -36.630  0.00  0.00    +0.022 A 
ATOM     25  C   UNL A   1      41.597 -21.952 -36.943  0.00  0.00    +0.132 A 
BRANCH  23  26
ATOM     26  O   UNL A   1      38.627 -22.946 -34.925  0.00  0.00    -0.495 OA
ATOM     27  C   UNL A   1      38.063 -22.413 -33.733  0.00  0.00    +0.079 C 
ENDBRANCH  23  26
BRANCH  25  28
ATOM     28  O   UNL A   1      42.201 -22.026 -38.172  0.00  0.00    -0.494 OA
ATOM     29  C   UNL A   1      41.393 -21.829 -39.324  0.00  0.00    +0.079 C 
ENDBRANCH  25  28
ENDBRANCH  19  20
ENDBRANCH   9  18
TORSDOF 4
ENDMDL
MODEL 20
REMARK VINA RESULT:    -6.026     23.500     26.082
REMARK INTER + INTRA:          -8.307
REMARK INTER:                  -7.505
REMARK INTRA:                  -0.802
REMARK UNBOUND:                -0.871
REMARK  Name = cpd111.pdb
REMARK  8 active torsions:
REMARK  status: ('A' for Active; 'I' for Inactive)
REMARK    1  A    between atoms: C_1  and  C_2
REMARK    2  A    between atoms: C_6  and  C_7
REMARK    3  A    between atoms: C_9  and  N_10
REMARK    4  A    between atoms: C_11  and  C_12
REMARK    5  A    between atoms: C_15  and  O_16
REMARK    6  A    between atoms: O_16  and  C_17
REMARK    7  A    between atoms: C_19  and  O_20
REMARK    8  A    between atoms: O_20  and  C_21
REMARK                            x       y       z     vdW  Elec       q    Type
REMARK                         _______ _______ _______ _____ _____    ______ ____
ROOT
ATOM      1  C   UNL A   1      43.172 -15.227 -41.696  0.00  0.00    -0.046 C 
ATOM      2  C   UNL A   1      44.524 -15.575 -41.157  0.00  0.00    -0.085 C 
ATOM      3  C   UNL A   1      44.983 -16.782 -40.756  0.00  0.00    -0.035 C 
ATOM      4  C   UNL A   1      44.146 -18.050 -40.757  0.00  0.00    +0.006 C 
ATOM      5  C   UNL A   1      44.879 -19.240 -41.335  0.00  0.00    -0.077 C 
ATOM      6  C   UNL A   1      46.217 -19.329 -41.420  0.00  0.00    -0.073 C 
ATOM      7  C   UNL A   1      46.913 -20.527 -41.994  0.00  0.00    -0.044 C 
ATOM      8  C   UNL A   1      47.103 -18.204 -40.931  0.00  0.00    +0.001 C 
ATOM      9  C   UNL A   1      46.361 -17.067 -40.143  0.00  0.00    +0.113 C 
ATOM     10  C   UNL A   1      46.151 -17.554 -38.697  0.00  0.00    -0.000 C 
ATOM     11  C   UNL A   1      46.962 -17.304 -37.654  0.00  0.00    -0.068 C 
ATOM     12  C   UNL A   1      46.720 -17.852 -36.287  0.00  0.00    +0.045 C 
ATOM     13  C   UNL A   1      45.758 -19.031 -36.316  0.00  0.00    +0.240 C 
ATOM     14  O   UNL A   1      45.841 -19.913 -35.463  0.00  0.00    -0.273 OA
ATOM     15  N   UNL A   1      44.751 -19.014 -37.251  0.00  0.00    -0.185 NA
ATOM     16  C   UNL A   1      44.928 -18.353 -38.352  0.00  0.00    +0.040 C 
ATOM     17  C   UNL A   1      43.744 -18.335 -39.313  0.00  0.00    -0.002 C 
ENDROOT
BRANCH   9  18
ATOM     18  N   UNL A   1      47.223 -15.860 -40.067  0.00  0.00    -0.275 NA
ATOM     19  C   UNL A   1      48.055 -15.611 -41.019  0.00  0.00    +0.034 C 
BRANCH  19  20
ATOM     20  C   UNL A   1      48.950 -14.431 -40.977  0.00  0.00    +0.035 A 
ATOM     21  C   UNL A   1      49.504 -14.039 -39.754  0.00  0.00    -0.046 A 
ATOM     22  C   UNL A   1      50.347 -12.931 -39.697  0.00  0.00    -0.019 A 
ATOM     23  C   UNL A   1      50.643 -12.207 -40.852  0.00  0.00    +0.124 A 
ATOM     24  C   UNL A   1      50.088 -12.599 -42.075  0.00  0.00    +0.022 A 
ATOM     25  C   UNL A   1      49.236 -13.712 -42.150  0.00  0.00    +0.132 A 
BRANCH  23  26
ATOM     26  O   UNL A   1      51.483 -11.145 -40.651  0.00  0.00    -0.495 OA
ATOM     27  C   UNL A   1      51.936 -10.912 -39.323  0.00  0.00    +0.079 C 
ENDBRANCH  23  26
BRANCH  25  28
ATOM     28  O   UNL A   1      48.652 -14.161 -43.307  0.00  0.00    -0.494 OA
ATOM     29  C   UNL A   1      49.498 -14.700 -44.315  0.00  0.00    +0.079 C 
ENDBRANCH  25  28
ENDBRANCH  19  20
ENDBRANCH   9  18
TORSDOF 4
ENDMDL
