@<TRIPOS>MOLECULE
*****
 28 31 0 0 0
SMALL
GASTEIGER

@<TRIPOS>ATOM
      1 C          -0.5363   -2.9302    0.0000 C.3     1  UNL1        0.0301
      2 C           0.4637   -2.9302    0.0000 C.2     1  UNL1       -0.0319
      3 C           0.9637   -2.0642    0.0000 C.2     1  UNL1       -0.0204
      4 C           1.9637   -2.0642    0.0000 C.3     1  UNL1        0.0473
      5 C           1.4394   -2.6293    0.0000 C.2     1  UNL1       -0.0303
      6 C           0.6707   -2.5717    0.0000 C.2     1  UNL1       -0.0453
      7 C           0.1707   -3.4377    0.0000 C.3     1  UNL1        0.0261
      8 C           0.2365   -1.9348    0.0000 C.3     1  UNL1        0.0523
      9 C           0.4637   -1.1982    0.0000 C.3     1  UNL1        0.1231
     10 N           1.6808    0.9704    0.0000 N.2     1  UNL1       -0.2644
     11 C           1.6808   -0.0000    0.0000 C.2     1  UNL1        0.0938
     12 C           0.8404   -0.4852    0.0000 C.ar    1  UNL1        0.0219
     13 C           0.8404   -1.4556    0.0000 C.ar    1  UNL1        0.0050
     14 C          -0.0000   -1.9409    0.0000 C.ar    1  UNL1        0.0453
     15 C          -0.8404   -1.4556    0.0000 C.ar    1  UNL1        0.2293
     16 O          -1.6808   -1.9409    0.0000 O.3     1  UNL1       -0.2833
     17 C          -0.8404   -0.4852    0.0000 C.ar    1  UNL1        0.1774
     18 O          -1.6808    0.0000    0.0000 O.3     1  UNL1       -0.4682
     19 C          -1.6808    0.9704    0.0000 C.3     1  UNL1        0.2526
     20 C           0.0000   -0.0000    0.0000 C.ar    1  UNL1        0.0418
     21 C           0.9637   -0.3321    0.0000 C.ar    1  UNL1        0.0154
     22 C           0.4637    0.5339    0.0000 C.ar    1  UNL1        0.0040
     23 C           0.9637    1.3999    0.0000 C.ar    1  UNL1        0.0623
     24 C           1.9637    1.3999    0.0000 C.ar    1  UNL1        0.2790
     25 O           2.4637    2.2659    0.0000 O.2     1  UNL1       -0.2652
     26 N           2.4637    0.5339    0.0000 N.ar    1  UNL1       -0.2125
     27 C           1.9637   -0.3321    0.0000 C.ar    1  UNL1        0.0609
     28 C           2.4637   -1.1982    0.0000 C.3     1  UNL1        0.0541
@<TRIPOS>BOND
     1     1     2    1
     2     2     3    2
     3     3     4    1
     4     4     5    1
     5     5     6    2
     6     6     7    1
     7     6     8    1
     8     8     9    1
     9     3     9    1
    10     9    10    1
    11    10    11    2
    12    11    12    1
    13    12    13   ar
    14    13    14   ar
    15    14    15   ar
    16    15    16    1
    17    15    17   ar
    18    17    18    1
    19    18    19    1
    20    17    20   ar
    21    12    20   ar
    22     9    21    1
    23    21    22   ar
    24    22    23   ar
    25    23    24   ar
    26    24    25    2
    27    24    26   ar
    28    26    27   ar
    29    21    27   ar
    30    27    28    1
    31     4    28    1
