MODEL 1
REMARK VINA RESULT:    -7.838      0.000      0.000
REMARK INTER + INTRA:          -2.691
REMARK INTER:                  -8.754
REMARK INTRA:                   6.064
REMARK UNBOUND:                 6.064
REMARK  Name = cpd119.pdb
REMARK  7 active torsions:
REMARK  status: ('A' for Active; 'I' for Inactive)
REMARK    1  A    between atoms: C_1  and  C_2
REMARK    2  A    between atoms: C_6  and  C_7
REMARK    3  A    between atoms: C_9  and  N_10
REMARK    4  A    between atoms: C_11  and  C_12
REMARK    5  A    between atoms: C_15  and  O_16
REMARK    6  A    between atoms: C_17  and  O_18
REMARK    7  A    between atoms: O_18  and  C_19
REMARK                            x       y       z     vdW  Elec       q    Type
REMARK                         _______ _______ _______ _____ _____    ______ ____
ROOT
ATOM      1  C   UNL A   1      41.616 -22.206 -39.179  0.00  0.00    -0.046 C 
ATOM      2  C   UNL A   1      41.120 -21.271 -38.127  0.00  0.00    -0.085 C 
ATOM      3  C   UNL A   1      41.785 -20.192 -37.660  0.00  0.00    -0.035 C 
ATOM      4  C   UNL A   1      41.120 -19.106 -36.352  0.00  0.00    +0.006 C 
ATOM      5  C   UNL A   1      40.671 -17.989 -37.414  0.00  0.00    -0.077 C 
ATOM      6  C   UNL A   1      41.164 -17.895 -38.712  0.00  0.00    -0.073 C 
ATOM      7  C   UNL A   1      40.610 -16.885 -39.678  0.00  0.00    -0.044 C 
ATOM      8  C   UNL A   1      42.458 -18.776 -39.397  0.00  0.00    +0.001 C 
ATOM      9  C   UNL A   1      43.496 -19.577 -38.247  0.00  0.00    +0.113 C 
ATOM     10  C   UNL A   1      44.939 -19.329 -36.914  0.00  0.00    -0.000 C 
ATOM     11  C   UNL A   1      46.266 -19.465 -36.951  0.00  0.00    -0.068 C 
ATOM     12  C   UNL A   1      47.075 -19.228 -35.710  0.00  0.00    +0.045 C 
ATOM     13  C   UNL A   1      46.470 -18.415 -34.538  0.00  0.00    +0.240 C 
ATOM     14  O   UNL A   1      47.247 -17.808 -33.799  0.00  0.00    -0.273 OA
ATOM     15  N   UNL A   1      45.117 -18.440 -34.253  0.00  0.00    -0.185 NA
ATOM     16  C   UNL A   1      44.307 -18.771 -35.200  0.00  0.00    +0.040 C 
ATOM     17  C   UNL A   1      42.366 -18.625 -34.877  0.00  0.00    -0.002 C 
ENDROOT
BRANCH   9  18
ATOM     18  N   UNL A   1      43.613 -18.228 -37.887  0.00  0.00    -0.275 NA
ATOM     19  C   UNL A   1      44.607 -18.376 -38.740  0.00  0.00    +0.031 C 
BRANCH  19  20
ATOM     20  C   UNL A   1      44.820 -19.632 -40.295  0.00  0.00    -0.004 A 
ATOM     21  C   UNL A   1      44.564 -19.361 -41.694  0.00  0.00    -0.049 A 
ATOM     22  C   UNL A   1      44.757 -20.262 -42.765  0.00  0.00    -0.016 A 
ATOM     23  C   UNL A   1      45.285 -21.509 -42.534  0.00  0.00    +0.158 A 
ATOM     24  C   UNL A   1      45.638 -21.874 -41.252  0.00  0.00    +0.162 A 
ATOM     25  C   UNL A   1      45.457 -20.956 -40.197  0.00  0.00    -0.008 A 
BRANCH  23  26
ATOM     26  O   UNL A   1      45.492 -22.344 -43.590  0.00  0.00    -0.503 OA
ATOM     27  H   UNL A   1      46.078 -22.094 -44.278  0.00  0.00    +0.000 HD
ENDBRANCH  23  26
BRANCH  24  28
ATOM     28  O   UNL A   1      46.225 -23.107 -41.124  0.00  0.00    -0.491 OA
ATOM     29  C   UNL A   1      47.629 -23.082 -40.875  0.00  0.00    +0.079 C 
ENDBRANCH  24  28
ENDBRANCH  19  20
ENDBRANCH   9  18
TORSDOF 4
ENDMDL
MODEL 2
REMARK VINA RESULT:    -7.489      3.208      4.276
REMARK INTER + INTRA:          -2.302
REMARK INTER:                  -8.306
REMARK INTRA:                   6.004
REMARK UNBOUND:                 6.064
REMARK  Name = cpd119.pdb
REMARK  7 active torsions:
REMARK  status: ('A' for Active; 'I' for Inactive)
REMARK    1  A    between atoms: C_1  and  C_2
REMARK    2  A    between atoms: C_6  and  C_7
REMARK    3  A    between atoms: C_9  and  N_10
REMARK    4  A    between atoms: C_11  and  C_12
REMARK    5  A    between atoms: C_15  and  O_16
REMARK    6  A    between atoms: C_17  and  O_18
REMARK    7  A    between atoms: O_18  and  C_19
REMARK                            x       y       z     vdW  Elec       q    Type
REMARK                         _______ _______ _______ _____ _____    ______ ____
ROOT
ATOM      1  C   UNL A   1      46.214 -20.792 -37.604  0.00  0.00    -0.046 C 
ATOM      2  C   UNL A   1      45.649 -19.527 -37.051  0.00  0.00    -0.085 C 
ATOM      3  C   UNL A   1      45.401 -18.403 -37.759  0.00  0.00    -0.035 C 
ATOM      4  C   UNL A   1      44.729 -16.883 -37.005  0.00  0.00    +0.006 C 
ATOM      5  C   UNL A   1      43.249 -17.187 -37.548  0.00  0.00    -0.077 C 
ATOM      6  C   UNL A   1      42.958 -18.064 -38.588  0.00  0.00    -0.073 C 
ATOM      7  C   UNL A   1      41.535 -18.375 -38.963  0.00  0.00    -0.044 C 
ATOM      8  C   UNL A   1      44.067 -18.842 -39.630  0.00  0.00    +0.001 C 
ATOM      9  C   UNL A   1      45.675 -18.166 -39.634  0.00  0.00    +0.113 C 
ATOM     10  C   UNL A   1      46.803 -16.665 -40.261  0.00  0.00    -0.000 C 
ATOM     11  C   UNL A   1      47.627 -16.495 -41.296  0.00  0.00    -0.068 C 
ATOM     12  C   UNL A   1      48.376 -15.204 -41.451  0.00  0.00    +0.045 C 
ATOM     13  C   UNL A   1      47.886 -13.935 -40.710  0.00  0.00    +0.240 C 
ATOM     14  O   UNL A   1      48.153 -12.840 -41.209  0.00  0.00    -0.273 OA
ATOM     15  N   UNL A   1      47.262 -14.004 -39.478  0.00  0.00    -0.185 NA
ATOM     16  C   UNL A   1      46.694 -15.113 -39.151  0.00  0.00    +0.040 C 
ATOM     17  C   UNL A   1      45.630 -15.176 -37.490  0.00  0.00    -0.002 C 
ENDROOT
BRANCH   9  18
ATOM     18  N   UNL A   1      44.881 -17.089 -40.051  0.00  0.00    -0.275 NA
ATOM     19  C   UNL A   1      45.169 -17.679 -41.193  0.00  0.00    +0.031 C 
BRANCH  19  20
ATOM     20  C   UNL A   1      45.580 -19.605 -41.603  0.00  0.00    -0.004 A 
ATOM     21  C   UNL A   1      44.725 -20.572 -42.257  0.00  0.00    -0.049 A 
ATOM     22  C   UNL A   1      45.062 -21.911 -42.558  0.00  0.00    -0.016 A 
ATOM     23  C   UNL A   1      46.319 -22.388 -42.279  0.00  0.00    +0.158 A 
ATOM     24  C   UNL A   1      47.257 -21.550 -41.715  0.00  0.00    +0.162 A 
ATOM     25  C   UNL A   1      46.912 -20.210 -41.439  0.00  0.00    -0.008 A 
BRANCH  23  26
ATOM     26  O   UNL A   1      46.628 -23.672 -42.611  0.00  0.00    -0.503 OA
ATOM     27  H   UNL A   1      46.849 -23.887 -43.496  0.00  0.00    +0.000 HD
ENDBRANCH  23  26
BRANCH  24  28
ATOM     28  O   UNL A   1      48.508 -22.086 -41.539  0.00  0.00    -0.491 OA
ATOM     29  C   UNL A   1      48.828 -22.437 -40.195  0.00  0.00    +0.079 C 
ENDBRANCH  24  28
ENDBRANCH  19  20
ENDBRANCH   9  18
TORSDOF 4
ENDMDL
MODEL 3
REMARK VINA RESULT:    -7.431     20.506     22.952
REMARK INTER + INTRA:          -2.237
REMARK INTER:                  -8.351
REMARK INTRA:                   6.115
REMARK UNBOUND:                 6.064
REMARK  Name = cpd119.pdb
REMARK  7 active torsions:
REMARK  status: ('A' for Active; 'I' for Inactive)
REMARK    1  A    between atoms: C_1  and  C_2
REMARK    2  A    between atoms: C_6  and  C_7
REMARK    3  A    between atoms: C_9  and  N_10
REMARK    4  A    between atoms: C_11  and  C_12
REMARK    5  A    between atoms: C_15  and  O_16
REMARK    6  A    between atoms: C_17  and  O_18
REMARK    7  A    between atoms: O_18  and  C_19
REMARK                            x       y       z     vdW  Elec       q    Type
REMARK                         _______ _______ _______ _____ _____    ______ ____
ROOT
ATOM      1  C   UNL A   1      33.309 -35.619 -27.823  0.00  0.00    -0.046 C 
ATOM      2  C   UNL A   1      33.977 -35.171 -29.079  0.00  0.00    -0.085 C 
ATOM      3  C   UNL A   1      34.924 -35.860 -29.753  0.00  0.00    -0.035 C 
ATOM      4  C   UNL A   1      35.712 -35.234 -31.276  0.00  0.00    +0.006 C 
ATOM      5  C   UNL A   1      34.799 -36.165 -32.212  0.00  0.00    -0.077 C 
ATOM      6  C   UNL A   1      34.109 -37.290 -31.769  0.00  0.00    -0.073 C 
ATOM      7  C   UNL A   1      33.189 -38.044 -32.688  0.00  0.00    -0.044 C 
ATOM      8  C   UNL A   1      34.221 -38.039 -30.237  0.00  0.00    +0.001 C 
ATOM      9  C   UNL A   1      35.612 -37.581 -29.291  0.00  0.00    +0.113 C 
ATOM     10  C   UNL A   1      37.565 -37.807 -29.063  0.00  0.00    -0.000 C 
ATOM     11  C   UNL A   1      38.323 -38.576 -28.279  0.00  0.00    -0.068 C 
ATOM     12  C   UNL A   1      39.818 -38.460 -28.338  0.00  0.00    +0.045 C 
ATOM     13  C   UNL A   1      40.492 -37.811 -29.573  0.00  0.00    +0.240 C 
ATOM     14  O   UNL A   1      41.640 -38.164 -29.852  0.00  0.00    -0.273 OA
ATOM     15  N   UNL A   1      39.885 -36.794 -30.287  0.00  0.00    -0.185 NA
ATOM     16  C   UNL A   1      38.603 -36.687 -30.212  0.00  0.00    +0.040 C 
ATOM     17  C   UNL A   1      37.695 -35.374 -31.372  0.00  0.00    -0.002 C 
ENDROOT
BRANCH   9  18
ATOM     18  N   UNL A   1      36.186 -38.136 -30.442  0.00  0.00    -0.275 NA
ATOM     19  C   UNL A   1      36.004 -39.198 -29.683  0.00  0.00    +0.031 C 
BRANCH  19  20
ATOM     20  C   UNL A   1      34.642 -39.562 -28.249  0.00  0.00    -0.004 A 
ATOM     21  C   UNL A   1      33.583 -40.549 -28.264  0.00  0.00    -0.049 A 
ATOM     22  C   UNL A   1      32.663 -40.799 -27.220  0.00  0.00    -0.016 A 
ATOM     23  C   UNL A   1      32.760 -40.114 -26.034  0.00  0.00    +0.158 A 
ATOM     24  C   UNL A   1      33.768 -39.190 -25.860  0.00  0.00    +0.162 A 
ATOM     25  C   UNL A   1      34.690 -38.966 -26.903  0.00  0.00    -0.008 A 
BRANCH  23  26
ATOM     26  O   UNL A   1      31.881 -40.399 -25.033  0.00  0.00    -0.503 OA
ATOM     27  H   UNL A   1      31.001 -40.648 -25.239  0.00  0.00    +0.000 HD
ENDBRANCH  23  26
BRANCH  24  28
ATOM     28  O   UNL A   1      33.836 -38.607 -24.619  0.00  0.00    -0.491 OA
ATOM     29  C   UNL A   1      33.467 -37.230 -24.580  0.00  0.00    +0.079 C 
ENDBRANCH  24  28
ENDBRANCH  19  20
ENDBRANCH   9  18
TORSDOF 4
ENDMDL
MODEL 4
REMARK VINA RESULT:    -7.406      2.739      4.745
REMARK INTER + INTRA:          -2.209
REMARK INTER:                  -8.490
REMARK INTRA:                   6.282
REMARK UNBOUND:                 6.064
REMARK  Name = cpd119.pdb
REMARK  7 active torsions:
REMARK  status: ('A' for Active; 'I' for Inactive)
REMARK    1  A    between atoms: C_1  and  C_2
REMARK    2  A    between atoms: C_6  and  C_7
REMARK    3  A    between atoms: C_9  and  N_10
REMARK    4  A    between atoms: C_11  and  C_12
REMARK    5  A    between atoms: C_15  and  O_16
REMARK    6  A    between atoms: C_17  and  O_18
REMARK    7  A    between atoms: O_18  and  C_19
REMARK                            x       y       z     vdW  Elec       q    Type
REMARK                         _______ _______ _______ _____ _____    ______ ____
ROOT
ATOM      1  C   UNL A   1      46.018 -16.198 -38.435  0.00  0.00    -0.046 C 
ATOM      2  C   UNL A   1      45.962 -16.145 -36.946  0.00  0.00    -0.085 C 
ATOM      3  C   UNL A   1      45.697 -17.192 -36.133  0.00  0.00    -0.035 C 
ATOM      4  C   UNL A   1      45.624 -17.042 -34.315  0.00  0.00    +0.006 C 
ATOM      5  C   UNL A   1      47.093 -17.665 -34.137  0.00  0.00    -0.077 C 
ATOM      6  C   UNL A   1      47.751 -18.416 -35.106  0.00  0.00    -0.073 C 
ATOM      7  C   UNL A   1      49.170 -18.871 -34.901  0.00  0.00    -0.044 C 
ATOM      8  C   UNL A   1      47.109 -19.004 -36.577  0.00  0.00    +0.001 C 
ATOM      9  C   UNL A   1      45.368 -18.992 -36.679  0.00  0.00    +0.113 C 
ATOM     10  C   UNL A   1      43.702 -19.886 -36.095  0.00  0.00    -0.000 C 
ATOM     11  C   UNL A   1      42.899 -20.798 -36.645  0.00  0.00    -0.068 C 
ATOM     12  C   UNL A   1      41.660 -21.237 -35.921  0.00  0.00    +0.045 C 
ATOM     13  C   UNL A   1      41.533 -20.998 -34.395  0.00  0.00    +0.240 C 
ATOM     14  O   UNL A   1      40.817 -21.767 -33.751  0.00  0.00    -0.273 OA
ATOM     15  N   UNL A   1      42.110 -19.903 -33.777  0.00  0.00    -0.185 NA
ATOM     16  C   UNL A   1      43.105 -19.333 -34.366  0.00  0.00    +0.040 C 
ATOM     17  C   UNL A   1      44.070 -17.898 -33.415  0.00  0.00    -0.002 C 
ENDROOT
BRANCH   9  18
ATOM     18  N   UNL A   1      45.611 -19.825 -35.579  0.00  0.00    -0.275 NA
ATOM     19  C   UNL A   1      45.490 -20.693 -36.563  0.00  0.00    +0.031 C 
BRANCH  19  20
ATOM     20  C   UNL A   1      45.867 -20.502 -38.529  0.00  0.00    -0.004 A 
ATOM     21  C   UNL A   1      45.202 -19.634 -39.478  0.00  0.00    -0.049 A 
ATOM     22  C   UNL A   1      45.518 -19.503 -40.849  0.00  0.00    -0.016 A 
ATOM     23  C   UNL A   1      46.577 -20.195 -41.385  0.00  0.00    +0.158 A 
ATOM     24  C   UNL A   1      47.340 -21.010 -40.575  0.00  0.00    +0.162 A 
ATOM     25  C   UNL A   1      47.024 -21.114 -39.204  0.00  0.00    -0.008 A 
BRANCH  23  26
ATOM     26  O   UNL A   1      46.880 -20.023 -42.701  0.00  0.00    -0.503 OA
ATOM     27  H   UNL A   1      47.774 -20.031 -42.981  0.00  0.00    +0.000 HD
ENDBRANCH  23  26
BRANCH  24  28
ATOM     28  O   UNL A   1      48.421 -21.603 -41.175  0.00  0.00    -0.491 OA
ATOM     29  C   UNL A   1      48.683 -22.941 -40.755  0.00  0.00    +0.079 C 
ENDBRANCH  24  28
ENDBRANCH  19  20
ENDBRANCH   9  18
TORSDOF 4
ENDMDL
MODEL 5
REMARK VINA RESULT:    -7.399     19.618     21.858
REMARK INTER + INTRA:          -2.201
REMARK INTER:                  -8.524
REMARK INTRA:                   6.323
REMARK UNBOUND:                 6.064
REMARK  Name = cpd119.pdb
REMARK  7 active torsions:
REMARK  status: ('A' for Active; 'I' for Inactive)
REMARK    1  A    between atoms: C_1  and  C_2
REMARK    2  A    between atoms: C_6  and  C_7
REMARK    3  A    between atoms: C_9  and  N_10
REMARK    4  A    between atoms: C_11  and  C_12
REMARK    5  A    between atoms: C_15  and  O_16
REMARK    6  A    between atoms: C_17  and  O_18
REMARK    7  A    between atoms: O_18  and  C_19
REMARK                            x       y       z     vdW  Elec       q    Type
REMARK                         _______ _______ _______ _____ _____    ______ ____
ROOT
ATOM      1  C   UNL A   1      35.437 -39.802 -31.581  0.00  0.00    -0.046 C 
ATOM      2  C   UNL A   1      33.976 -39.501 -31.613  0.00  0.00    -0.085 C 
ATOM      3  C   UNL A   1      33.361 -38.527 -30.907  0.00  0.00    -0.035 C 
ATOM      4  C   UNL A   1      31.560 -38.234 -30.983  0.00  0.00    +0.006 C 
ATOM      5  C   UNL A   1      31.737 -36.985 -31.975  0.00  0.00    -0.077 C 
ATOM      6  C   UNL A   1      32.926 -36.285 -32.155  0.00  0.00    -0.073 C 
ATOM      7  C   UNL A   1      33.034 -35.195 -33.185  0.00  0.00    -0.044 C 
ATOM      8  C   UNL A   1      34.370 -36.444 -31.255  0.00  0.00    +0.001 C 
ATOM      9  C   UNL A   1      34.202 -37.279 -29.732  0.00  0.00    +0.113 C 
ATOM     10  C   UNL A   1      33.564 -37.134 -27.864  0.00  0.00    -0.000 C 
ATOM     11  C   UNL A   1      34.158 -36.862 -26.701  0.00  0.00    -0.068 C 
ATOM     12  C   UNL A   1      33.358 -36.875 -25.432  0.00  0.00    +0.045 C 
ATOM     13  C   UNL A   1      31.814 -36.756 -25.492  0.00  0.00    +0.240 C 
ATOM     14  O   UNL A   1      31.237 -36.268 -24.519  0.00  0.00    -0.273 OA
ATOM     15  N   UNL A   1      31.083 -37.270 -26.548  0.00  0.00    -0.185 NA
ATOM     16  C   UNL A   1      31.689 -37.448 -27.671  0.00  0.00    +0.040 C 
ATOM     17  C   UNL A   1      30.626 -37.992 -29.243  0.00  0.00    -0.002 C 
ENDROOT
BRANCH   9  18
ATOM     18  N   UNL A   1      33.343 -36.182 -29.584  0.00  0.00    -0.275 NA
ATOM     19  C   UNL A   1      34.483 -35.704 -29.128  0.00  0.00    +0.031 C 
BRANCH  19  20
ATOM     20  C   UNL A   1      36.380 -36.189 -29.586  0.00  0.00    -0.004 A 
ATOM     21  C   UNL A   1      37.190 -37.238 -29.005  0.00  0.00    -0.049 A 
ATOM     22  C   UNL A   1      38.512 -37.571 -29.376  0.00  0.00    -0.016 A 
ATOM     23  C   UNL A   1      39.127 -36.913 -30.413  0.00  0.00    +0.158 A 
ATOM     24  C   UNL A   1      38.442 -35.933 -31.101  0.00  0.00    +0.162 A 
ATOM     25  C   UNL A   1      37.116 -35.626 -30.730  0.00  0.00    -0.008 A 
BRANCH  23  26
ATOM     26  O   UNL A   1      40.389 -37.277 -30.773  0.00  0.00    -0.503 OA
ATOM     27  H   UNL A   1      41.121 -36.761 -30.499  0.00  0.00    +0.000 HD
ENDBRANCH  23  26
BRANCH  24  28
ATOM     28  O   UNL A   1      39.103 -35.380 -32.168  0.00  0.00    -0.491 OA
ATOM     29  C   UNL A   1      39.566 -34.047 -31.964  0.00  0.00    +0.079 C 
ENDBRANCH  24  28
ENDBRANCH  19  20
ENDBRANCH   9  18
TORSDOF 4
ENDMDL
MODEL 6
REMARK VINA RESULT:    -7.396      1.877      2.305
REMARK INTER + INTRA:          -2.197
REMARK INTER:                  -8.485
REMARK INTRA:                   6.288
REMARK UNBOUND:                 6.064
REMARK  Name = cpd119.pdb
REMARK  7 active torsions:
REMARK  status: ('A' for Active; 'I' for Inactive)
REMARK    1  A    between atoms: C_1  and  C_2
REMARK    2  A    between atoms: C_6  and  C_7
REMARK    3  A    between atoms: C_9  and  N_10
REMARK    4  A    between atoms: C_11  and  C_12
REMARK    5  A    between atoms: C_15  and  O_16
REMARK    6  A    between atoms: C_17  and  O_18
REMARK    7  A    between atoms: O_18  and  C_19
REMARK                            x       y       z     vdW  Elec       q    Type
REMARK                         _______ _______ _______ _____ _____    ______ ____
ROOT
ATOM      1  C   UNL A   1      42.476 -21.590 -40.665  0.00  0.00    -0.046 C 
ATOM      2  C   UNL A   1      41.750 -20.483 -39.977  0.00  0.00    -0.085 C 
ATOM      3  C   UNL A   1      42.304 -19.591 -39.126  0.00  0.00    -0.035 C 
ATOM      4  C   UNL A   1      41.343 -18.274 -38.304  0.00  0.00    +0.006 C 
ATOM      5  C   UNL A   1      41.865 -17.158 -39.332  0.00  0.00    -0.077 C 
ATOM      6  C   UNL A   1      42.996 -17.294 -40.133  0.00  0.00    -0.073 C 
ATOM      7  C   UNL A   1      43.354 -16.245 -41.148  0.00  0.00    -0.044 C 
ATOM      8  C   UNL A   1      44.166 -18.538 -40.073  0.00  0.00    +0.001 C 
ATOM      9  C   UNL A   1      44.144 -19.503 -38.621  0.00  0.00    +0.113 C 
ATOM     10  C   UNL A   1      44.619 -19.556 -36.700  0.00  0.00    -0.000 C 
ATOM     11  C   UNL A   1      45.654 -20.046 -36.016  0.00  0.00    -0.068 C 
ATOM     12  C   UNL A   1      45.675 -19.946 -34.519  0.00  0.00    +0.045 C 
ATOM     13  C   UNL A   1      44.765 -18.918 -33.802  0.00  0.00    +0.240 C 
ATOM     14  O   UNL A   1      45.133 -18.490 -32.707  0.00  0.00    -0.273 OA
ATOM     15  N   UNL A   1      43.529 -18.558 -34.309  0.00  0.00    -0.185 NA
ATOM     16  C   UNL A   1      43.322 -18.727 -35.569  0.00  0.00    +0.040 C 
ATOM     17  C   UNL A   1      41.644 -18.041 -36.351  0.00  0.00    -0.002 C 
ENDROOT
BRANCH   9  18
ATOM     18  N   UNL A   1      44.394 -18.213 -38.135  0.00  0.00    -0.275 NA
ATOM     19  C   UNL A   1      45.612 -18.680 -38.321  0.00  0.00    +0.031 C 
BRANCH  19  20
ATOM     20  C   UNL A   1      46.301 -20.054 -39.618  0.00  0.00    -0.004 A 
ATOM     21  C   UNL A   1      45.909 -21.443 -39.728  0.00  0.00    -0.049 A 
ATOM     22  C   UNL A   1      46.393 -22.372 -40.676  0.00  0.00    -0.016 A 
ATOM     23  C   UNL A   1      47.280 -21.973 -41.646  0.00  0.00    +0.158 A 
ATOM     24  C   UNL A   1      47.688 -20.657 -41.698  0.00  0.00    +0.162 A 
ATOM     25  C   UNL A   1      47.180 -19.737 -40.757  0.00  0.00    -0.008 A 
BRANCH  23  26
ATOM     26  O   UNL A   1      47.704 -22.881 -42.568  0.00  0.00    -0.503 OA
ATOM     27  H   UNL A   1      47.192 -23.044 -43.336  0.00  0.00    +0.000 HD
ENDBRANCH  23  26
BRANCH  24  28
ATOM     28  O   UNL A   1      48.515 -20.329 -42.742  0.00  0.00    -0.491 OA
ATOM     29  C   UNL A   1      48.952 -18.972 -42.761  0.00  0.00    +0.079 C 
ENDBRANCH  24  28
ENDBRANCH  19  20
ENDBRANCH   9  18
TORSDOF 4
ENDMDL
MODEL 7
REMARK VINA RESULT:    -7.392      3.017      5.615
REMARK INTER + INTRA:          -2.193
REMARK INTER:                  -8.396
REMARK INTRA:                   6.203
REMARK UNBOUND:                 6.064
REMARK  Name = cpd119.pdb
REMARK  7 active torsions:
REMARK  status: ('A' for Active; 'I' for Inactive)
REMARK    1  A    between atoms: C_1  and  C_2
REMARK    2  A    between atoms: C_6  and  C_7
REMARK    3  A    between atoms: C_9  and  N_10
REMARK    4  A    between atoms: C_11  and  C_12
REMARK    5  A    between atoms: C_15  and  O_16
REMARK    6  A    between atoms: C_17  and  O_18
REMARK    7  A    between atoms: O_18  and  C_19
REMARK                            x       y       z     vdW  Elec       q    Type
REMARK                         _______ _______ _______ _____ _____    ______ ____
ROOT
ATOM      1  C   UNL A   1      45.661 -21.990 -39.841  0.00  0.00    -0.046 C 
ATOM      2  C   UNL A   1      46.496 -20.958 -39.160  0.00  0.00    -0.085 C 
ATOM      3  C   UNL A   1      46.040 -19.795 -38.646  0.00  0.00    -0.035 C 
ATOM      4  C   UNL A   1      47.130 -18.569 -37.846  0.00  0.00    +0.006 C 
ATOM      5  C   UNL A   1      46.693 -19.040 -36.375  0.00  0.00    -0.077 C 
ATOM      6  C   UNL A   1      45.541 -19.768 -36.092  0.00  0.00    -0.073 C 
ATOM      7  C   UNL A   1      45.261 -20.262 -34.700  0.00  0.00    -0.044 C 
ATOM      8  C   UNL A   1      44.265 -20.147 -37.163  0.00  0.00    +0.001 C 
ATOM      9  C   UNL A   1      44.224 -19.202 -38.628  0.00  0.00    +0.113 C 
ATOM     10  C   UNL A   1      43.780 -17.439 -39.410  0.00  0.00    -0.000 C 
ATOM     11  C   UNL A   1      42.716 -16.953 -40.053  0.00  0.00    -0.068 C 
ATOM     12  C   UNL A   1      42.731 -15.541 -40.560  0.00  0.00    +0.045 C 
ATOM     13  C   UNL A   1      43.742 -14.523 -39.977  0.00  0.00    +0.240 C 
ATOM     14  O   UNL A   1      43.433 -13.330 -39.998  0.00  0.00    -0.273 OA
ATOM     15  N   UNL A   1      44.997 -14.908 -39.540  0.00  0.00    -0.185 NA
ATOM     16  C   UNL A   1      45.166 -16.140 -39.204  0.00  0.00    +0.040 C 
ATOM     17  C   UNL A   1      46.885 -16.671 -38.392  0.00  0.00    -0.002 C 
ENDROOT
BRANCH   9  18
ATOM     18  N   UNL A   1      44.100 -18.231 -37.625  0.00  0.00    -0.275 NA
ATOM     19  C   UNL A   1      42.842 -18.517 -37.891  0.00  0.00    +0.031 C 
BRANCH  19  20
ATOM     20  C   UNL A   1      42.004 -20.211 -38.578  0.00  0.00    -0.004 A 
ATOM     21  C   UNL A   1      42.116 -20.779 -39.905  0.00  0.00    -0.049 A 
ATOM     22  C   UNL A   1      41.538 -21.993 -40.342  0.00  0.00    -0.016 A 
ATOM     23  C   UNL A   1      40.836 -22.781 -39.464  0.00  0.00    +0.158 A 
ATOM     24  C   UNL A   1      40.709 -22.391 -38.147  0.00  0.00    +0.162 A 
ATOM     25  C   UNL A   1      41.309 -21.187 -37.722  0.00  0.00    -0.008 A 
BRANCH  23  26
ATOM     26  O   UNL A   1      40.319 -23.962 -39.904  0.00  0.00    -0.503 OA
ATOM     27  H   UNL A   1      39.405 -24.029 -40.099  0.00  0.00    +0.000 HD
ENDBRANCH  23  26
BRANCH  24  28
ATOM     28  O   UNL A   1      40.057 -23.273 -37.324  0.00  0.00    -0.491 OA
ATOM     29  C   UNL A   1      39.369 -22.676 -36.227  0.00  0.00    +0.079 C 
ENDBRANCH  24  28
ENDBRANCH  19  20
ENDBRANCH   9  18
TORSDOF 4
ENDMDL
MODEL 8
REMARK VINA RESULT:    -7.343     18.982     21.408
REMARK INTER + INTRA:          -2.138
REMARK INTER:                  -8.195
REMARK INTRA:                   6.057
REMARK UNBOUND:                 6.064
REMARK  Name = cpd119.pdb
REMARK  7 active torsions:
REMARK  status: ('A' for Active; 'I' for Inactive)
REMARK    1  A    between atoms: C_1  and  C_2
REMARK    2  A    between atoms: C_6  and  C_7
REMARK    3  A    between atoms: C_9  and  N_10
REMARK    4  A    between atoms: C_11  and  C_12
REMARK    5  A    between atoms: C_15  and  O_16
REMARK    6  A    between atoms: C_17  and  O_18
REMARK    7  A    between atoms: O_18  and  C_19
REMARK                            x       y       z     vdW  Elec       q    Type
REMARK                         _______ _______ _______ _____ _____    ______ ____
ROOT
ATOM      1  C   UNL A   1      32.434 -35.447 -27.514  0.00  0.00    -0.046 C 
ATOM      2  C   UNL A   1      32.576 -34.316 -28.477  0.00  0.00    -0.085 C 
ATOM      3  C   UNL A   1      33.318 -34.337 -29.606  0.00  0.00    -0.035 C 
ATOM      4  C   UNL A   1      33.461 -32.902 -30.726  0.00  0.00    +0.006 C 
ATOM      5  C   UNL A   1      32.410 -33.524 -31.767  0.00  0.00    -0.077 C 
ATOM      6  C   UNL A   1      32.056 -34.869 -31.818  0.00  0.00    -0.073 C 
ATOM      7  C   UNL A   1      30.981 -35.351 -32.754  0.00  0.00    -0.044 C 
ATOM      8  C   UNL A   1      32.770 -36.164 -30.962  0.00  0.00    +0.001 C 
ATOM      9  C   UNL A   1      34.331 -35.816 -30.266  0.00  0.00    +0.113 C 
ATOM     10  C   UNL A   1      36.259 -35.571 -30.643  0.00  0.00    -0.000 C 
ATOM     11  C   UNL A   1      37.326 -36.367 -30.565  0.00  0.00    -0.068 C 
ATOM     12  C   UNL A   1      38.686 -35.829 -30.899  0.00  0.00    +0.045 C 
ATOM     13  C   UNL A   1      38.818 -34.536 -31.742  0.00  0.00    +0.240 C 
ATOM     14  O   UNL A   1      39.838 -34.393 -32.419  0.00  0.00    -0.273 OA
ATOM     15  N   UNL A   1      37.883 -33.519 -31.671  0.00  0.00    -0.185 NA
ATOM     16  C   UNL A   1      36.699 -33.816 -31.258  0.00  0.00    +0.040 C 
ATOM     17  C   UNL A   1      35.296 -32.430 -31.334  0.00  0.00    -0.002 C 
ENDROOT
BRANCH   9  18
ATOM     18  N   UNL A   1      34.547 -35.611 -31.635  0.00  0.00    -0.275 NA
ATOM     19  C   UNL A   1      34.879 -36.878 -31.488  0.00  0.00    +0.031 C 
BRANCH  19  20
ATOM     20  C   UNL A   1      34.242 -38.252 -30.165  0.00  0.00    -0.004 A 
ATOM     21  C   UNL A   1      33.482 -39.454 -30.434  0.00  0.00    -0.049 A 
ATOM     22  C   UNL A   1      33.080 -40.415 -29.480  0.00  0.00    -0.016 A 
ATOM     23  C   UNL A   1      33.457 -40.286 -28.166  0.00  0.00    +0.158 A 
ATOM     24  C   UNL A   1      34.243 -39.220 -27.783  0.00  0.00    +0.162 A 
ATOM     25  C   UNL A   1      34.653 -38.280 -28.751  0.00  0.00    -0.008 A 
BRANCH  23  26
ATOM     26  O   UNL A   1      33.084 -41.246 -27.274  0.00  0.00    -0.503 OA
ATOM     27  H   UNL A   1      33.573 -41.366 -26.483  0.00  0.00    +0.000 HD
ENDBRANCH  23  26
BRANCH  24  28
ATOM     28  O   UNL A   1      34.635 -39.209 -26.468  0.00  0.00    -0.491 OA
ATOM     29  C   UNL A   1      34.499 -37.951 -25.810  0.00  0.00    +0.079 C 
ENDBRANCH  24  28
ENDBRANCH  19  20
ENDBRANCH   9  18
TORSDOF 4
ENDMDL
MODEL 9
REMARK VINA RESULT:    -7.335      2.389      4.725
REMARK INTER + INTRA:          -2.129
REMARK INTER:                  -8.192
REMARK INTRA:                   6.063
REMARK UNBOUND:                 6.064
REMARK  Name = cpd119.pdb
REMARK  7 active torsions:
REMARK  status: ('A' for Active; 'I' for Inactive)
REMARK    1  A    between atoms: C_1  and  C_2
REMARK    2  A    between atoms: C_6  and  C_7
REMARK    3  A    between atoms: C_9  and  N_10
REMARK    4  A    between atoms: C_11  and  C_12
REMARK    5  A    between atoms: C_15  and  O_16
REMARK    6  A    between atoms: C_17  and  O_18
REMARK    7  A    between atoms: O_18  and  C_19
REMARK                            x       y       z     vdW  Elec       q    Type
REMARK                         _______ _______ _______ _____ _____    ______ ____
ROOT
ATOM      1  C   UNL A   1      46.447 -16.961 -40.146  0.00  0.00    -0.046 C 
ATOM      2  C   UNL A   1      46.019 -16.444 -38.813  0.00  0.00    -0.085 C 
ATOM      3  C   UNL A   1      45.534 -17.195 -37.800  0.00  0.00    -0.035 C 
ATOM      4  C   UNL A   1      45.009 -16.485 -36.202  0.00  0.00    +0.006 C 
ATOM      5  C   UNL A   1      46.370 -16.933 -35.479  0.00  0.00    -0.077 C 
ATOM      6  C   UNL A   1      47.233 -17.912 -35.964  0.00  0.00    -0.073 C 
ATOM      7  C   UNL A   1      48.542 -18.196 -35.281  0.00  0.00    -0.044 C 
ATOM      8  C   UNL A   1      46.967 -18.969 -37.280  0.00  0.00    +0.001 C 
ATOM      9  C   UNL A   1      45.309 -19.091 -37.806  0.00  0.00    +0.113 C 
ATOM     10  C   UNL A   1      43.528 -19.851 -37.395  0.00  0.00    -0.000 C 
ATOM     11  C   UNL A   1      42.867 -20.935 -37.805  0.00  0.00    -0.068 C 
ATOM     12  C   UNL A   1      41.476 -21.195 -37.307  0.00  0.00    +0.045 C 
ATOM     13  C   UNL A   1      40.975 -20.495 -36.019  0.00  0.00    +0.240 C 
ATOM     14  O   UNL A   1      40.101 -21.062 -35.359  0.00  0.00    -0.273 OA
ATOM     15  N   UNL A   1      41.404 -19.230 -35.660  0.00  0.00    -0.185 NA
ATOM     16  C   UNL A   1      42.528 -18.817 -36.137  0.00  0.00    +0.040 C 
ATOM     17  C   UNL A   1      43.258 -17.102 -35.488  0.00  0.00    -0.002 C 
ENDROOT
BRANCH   9  18
ATOM     18  N   UNL A   1      45.247 -19.520 -36.473  0.00  0.00    -0.275 NA
ATOM     19  C   UNL A   1      45.401 -20.656 -37.123  0.00  0.00    +0.031 C 
BRANCH  19  20
ATOM     20  C   UNL A   1      46.298 -21.046 -38.880  0.00  0.00    -0.004 A 
ATOM     21  C   UNL A   1      47.570 -21.701 -39.098  0.00  0.00    -0.049 A 
ATOM     22  C   UNL A   1      48.154 -21.988 -40.352  0.00  0.00    -0.016 A 
ATOM     23  C   UNL A   1      47.481 -21.693 -41.513  0.00  0.00    +0.158 A 
ATOM     24  C   UNL A   1      46.226 -21.127 -41.449  0.00  0.00    +0.162 A 
ATOM     25  C   UNL A   1      45.648 -20.865 -40.189  0.00  0.00    -0.008 A 
BRANCH  23  26
ATOM     26  O   UNL A   1      48.053 -22.012 -42.707  0.00  0.00    -0.503 OA
ATOM     27  H   UNL A   1      48.808 -22.567 -42.732  0.00  0.00    +0.000 HD
ENDBRANCH  23  26
BRANCH  24  28
ATOM     28  O   UNL A   1      45.596 -20.935 -42.652  0.00  0.00    -0.491 OA
ATOM     29  C   UNL A   1      44.628 -19.888 -42.665  0.00  0.00    +0.079 C 
ENDBRANCH  24  28
ENDBRANCH  19  20
ENDBRANCH   9  18
TORSDOF 4
ENDMDL
MODEL 10
REMARK VINA RESULT:    -7.228      2.908      5.058
REMARK INTER + INTRA:          -2.009
REMARK INTER:                  -8.074
REMARK INTRA:                   6.065
REMARK UNBOUND:                 6.064
REMARK  Name = cpd119.pdb
REMARK  7 active torsions:
REMARK  status: ('A' for Active; 'I' for Inactive)
REMARK    1  A    between atoms: C_1  and  C_2
REMARK    2  A    between atoms: C_6  and  C_7
REMARK    3  A    between atoms: C_9  and  N_10
REMARK    4  A    between atoms: C_11  and  C_12
REMARK    5  A    between atoms: C_15  and  O_16
REMARK    6  A    between atoms: C_17  and  O_18
REMARK    7  A    between atoms: O_18  and  C_19
REMARK                            x       y       z     vdW  Elec       q    Type
REMARK                         _______ _______ _______ _____ _____    ______ ____
ROOT
ATOM      1  C   UNL A   1      41.231 -17.140 -39.170  0.00  0.00    -0.046 C 
ATOM      2  C   UNL A   1      42.575 -16.667 -39.612  0.00  0.00    -0.085 C 
ATOM      3  C   UNL A   1      43.740 -17.324 -39.420  0.00  0.00    -0.035 C 
ATOM      4  C   UNL A   1      45.352 -16.668 -39.973  0.00  0.00    +0.006 C 
ATOM      5  C   UNL A   1      45.375 -17.626 -41.261  0.00  0.00    -0.077 C 
ATOM      6  C   UNL A   1      44.600 -18.773 -41.402  0.00  0.00    -0.073 C 
ATOM      7  C   UNL A   1      44.603 -19.555 -42.687  0.00  0.00    -0.044 C 
ATOM      8  C   UNL A   1      43.629 -19.523 -40.212  0.00  0.00    +0.001 C 
ATOM      9  C   UNL A   1      43.953 -19.022 -38.573  0.00  0.00    +0.113 C 
ATOM     10  C   UNL A   1      45.197 -19.185 -37.042  0.00  0.00    -0.000 C 
ATOM     11  C   UNL A   1      45.211 -19.932 -35.936  0.00  0.00    -0.068 C 
ATOM     12  C   UNL A   1      46.319 -19.767 -34.938  0.00  0.00    +0.045 C 
ATOM     13  C   UNL A   1      47.647 -19.094 -35.364  0.00  0.00    +0.240 C 
ATOM     14  O   UNL A   1      48.672 -19.408 -34.756  0.00  0.00    -0.273 OA
ATOM     15  N   UNL A   1      47.686 -18.095 -36.320  0.00  0.00    -0.185 NA
ATOM     16  C   UNL A   1      46.713 -18.030 -37.163  0.00  0.00    +0.040 C 
ATOM     17  C   UNL A   1      46.840 -16.743 -38.655  0.00  0.00    -0.002 C 
ENDROOT
BRANCH   9  18
ATOM     18  N   UNL A   1      45.181 -19.556 -38.985  0.00  0.00    -0.275 NA
ATOM     19  C   UNL A   1      44.566 -20.617 -38.503  0.00  0.00    +0.031 C 
BRANCH  19  20
ATOM     20  C   UNL A   1      42.605 -21.047 -38.377  0.00  0.00    -0.004 A 
ATOM     21  C   UNL A   1      41.812 -21.835 -39.296  0.00  0.00    -0.049 A 
ATOM     22  C   UNL A   1      40.440 -22.144 -39.156  0.00  0.00    -0.016 A 
ATOM     23  C   UNL A   1      39.748 -21.735 -38.042  0.00  0.00    +0.158 A 
ATOM     24  C   UNL A   1      40.402 -21.032 -37.053  0.00  0.00    +0.162 A 
ATOM     25  C   UNL A   1      41.776 -20.749 -37.198  0.00  0.00    -0.008 A 
BRANCH  23  26
ATOM     26  O   UNL A   1      38.435 -22.077 -37.918  0.00  0.00    -0.503 OA
ATOM     27  H   UNL A   1      37.832 -21.880 -38.608  0.00  0.00    +0.000 HD
ENDBRANCH  23  26
BRANCH  24  28
ATOM     28  O   UNL A   1      39.654 -20.729 -35.943  0.00  0.00    -0.491 OA
ATOM     29  C   UNL A   1      40.193 -21.196 -34.709  0.00  0.00    +0.079 C 
ENDBRANCH  24  28
ENDBRANCH  19  20
ENDBRANCH   9  18
TORSDOF 4
ENDMDL
MODEL 11
REMARK VINA RESULT:    -7.098      1.902      6.445
REMARK INTER + INTRA:          -1.865
REMARK INTER:                  -7.904
REMARK INTRA:                   6.040
REMARK UNBOUND:                 6.064
REMARK  Name = cpd119.pdb
REMARK  7 active torsions:
REMARK  status: ('A' for Active; 'I' for Inactive)
REMARK    1  A    between atoms: C_1  and  C_2
REMARK    2  A    between atoms: C_6  and  C_7
REMARK    3  A    between atoms: C_9  and  N_10
REMARK    4  A    between atoms: C_11  and  C_12
REMARK    5  A    between atoms: C_15  and  O_16
REMARK    6  A    between atoms: C_17  and  O_18
REMARK    7  A    between atoms: O_18  and  C_19
REMARK                            x       y       z     vdW  Elec       q    Type
REMARK                         _______ _______ _______ _____ _____    ______ ____
ROOT
ATOM      1  C   UNL A   1      45.313 -15.398 -36.981  0.00  0.00    -0.046 C 
ATOM      2  C   UNL A   1      44.807 -15.542 -38.377  0.00  0.00    -0.085 C 
ATOM      3  C   UNL A   1      44.411 -16.699 -38.951  0.00  0.00    -0.035 C 
ATOM      4  C   UNL A   1      43.822 -16.800 -40.677  0.00  0.00    +0.006 C 
ATOM      5  C   UNL A   1      42.284 -16.853 -40.220  0.00  0.00    -0.077 C 
ATOM      6  C   UNL A   1      41.855 -17.189 -38.940  0.00  0.00    -0.073 C 
ATOM      7  C   UNL A   1      40.401 -17.110 -38.566  0.00  0.00    -0.044 C 
ATOM      8  C   UNL A   1      42.802 -17.798 -37.654  0.00  0.00    +0.001 C 
ATOM      9  C   UNL A   1      44.365 -18.417 -38.118  0.00  0.00    +0.113 C 
ATOM     10  C   UNL A   1      45.327 -19.925 -38.968  0.00  0.00    -0.000 C 
ATOM     11  C   UNL A   1      45.964 -20.999 -38.498  0.00  0.00    -0.068 C 
ATOM     12  C   UNL A   1      46.636 -21.944 -39.450  0.00  0.00    +0.045 C 
ATOM     13  C   UNL A   1      46.234 -21.948 -40.946  0.00  0.00    +0.240 C 
ATOM     14  O   UNL A   1      46.380 -22.996 -41.578  0.00  0.00    -0.273 OA
ATOM     15  N   UNL A   1      45.822 -20.797 -41.594  0.00  0.00    -0.185 NA
ATOM     16  C   UNL A   1      45.352 -19.836 -40.876  0.00  0.00    +0.040 C 
ATOM     17  C   UNL A   1      44.577 -18.267 -41.789  0.00  0.00    -0.002 C 
ENDROOT
BRANCH   9  18
ATOM     18  N   UNL A   1      43.481 -19.224 -38.846  0.00  0.00    -0.275 NA
ATOM     19  C   UNL A   1      43.601 -19.893 -37.718  0.00  0.00    +0.031 C 
BRANCH  19  20
ATOM     20  C   UNL A   1      44.005 -19.253 -35.855  0.00  0.00    -0.004 A 
ATOM     21  C   UNL A   1      43.133 -19.284 -34.700  0.00  0.00    -0.049 A 
ATOM     22  C   UNL A   1      43.465 -18.854 -33.395  0.00  0.00    -0.016 A 
ATOM     23  C   UNL A   1      44.731 -18.405 -33.115  0.00  0.00    +0.158 A 
ATOM     24  C   UNL A   1      45.685 -18.386 -34.112  0.00  0.00    +0.162 A 
ATOM     25  C   UNL A   1      45.344 -18.837 -35.404  0.00  0.00    -0.008 A 
BRANCH  23  26
ATOM     26  O   UNL A   1      45.033 -18.029 -31.841  0.00  0.00    -0.503 OA
ATOM     27  H   UNL A   1      45.825 -17.559 -31.667  0.00  0.00    +0.000 HD
ENDBRANCH  23  26
BRANCH  24  28
ATOM     28  O   UNL A   1      46.941 -17.993 -33.728  0.00  0.00    -0.491 OA
ATOM     29  C   UNL A   1      47.943 -18.112 -34.736  0.00  0.00    +0.079 C 
ENDBRANCH  24  28
ENDBRANCH  19  20
ENDBRANCH   9  18
TORSDOF 4
ENDMDL
MODEL 12
REMARK VINA RESULT:    -7.097     18.608     21.634
REMARK INTER + INTRA:          -1.863
REMARK INTER:                  -7.891
REMARK INTRA:                   6.028
REMARK UNBOUND:                 6.064
REMARK  Name = cpd119.pdb
REMARK  7 active torsions:
REMARK  status: ('A' for Active; 'I' for Inactive)
REMARK    1  A    between atoms: C_1  and  C_2
REMARK    2  A    between atoms: C_6  and  C_7
REMARK    3  A    between atoms: C_9  and  N_10
REMARK    4  A    between atoms: C_11  and  C_12
REMARK    5  A    between atoms: C_15  and  O_16
REMARK    6  A    between atoms: C_17  and  O_18
REMARK    7  A    between atoms: O_18  and  C_19
REMARK                            x       y       z     vdW  Elec       q    Type
REMARK                         _______ _______ _______ _____ _____    ______ ____
ROOT
ATOM      1  C   UNL A   1      33.272 -35.802 -27.980  0.00  0.00    -0.046 C 
ATOM      2  C   UNL A   1      33.941 -36.979 -28.607  0.00  0.00    -0.085 C 
ATOM      3  C   UNL A   1      34.108 -37.171 -29.934  0.00  0.00    -0.035 C 
ATOM      4  C   UNL A   1      34.920 -38.652 -30.628  0.00  0.00    +0.006 C 
ATOM      5  C   UNL A   1      36.295 -37.863 -30.878  0.00  0.00    -0.077 C 
ATOM      6  C   UNL A   1      36.409 -36.477 -30.931  0.00  0.00    -0.073 C 
ATOM      7  C   UNL A   1      37.753 -35.816 -31.062  0.00  0.00    -0.044 C 
ATOM      8  C   UNL A   1      35.141 -35.332 -30.948  0.00  0.00    +0.001 C 
ATOM      9  C   UNL A   1      33.566 -35.980 -31.326  0.00  0.00    +0.113 C 
ATOM     10  C   UNL A   1      32.393 -36.657 -32.770  0.00  0.00    -0.000 C 
ATOM     11  C   UNL A   1      31.430 -36.110 -33.513  0.00  0.00    -0.068 C 
ATOM     12  C   UNL A   1      30.696 -36.946 -34.519  0.00  0.00    +0.045 C 
ATOM     13  C   UNL A   1      31.319 -38.273 -35.019  0.00  0.00    +0.240 C 
ATOM     14  O   UNL A   1      31.007 -38.666 -36.145  0.00  0.00    -0.273 OA
ATOM     15  N   UNL A   1      32.117 -39.057 -34.206  0.00  0.00    -0.185 NA
ATOM     16  C   UNL A   1      32.701 -38.491 -33.207  0.00  0.00    +0.040 C 
ATOM     17  C   UNL A   1      33.997 -39.540 -32.151  0.00  0.00    -0.002 C 
ENDROOT
BRANCH   9  18
ATOM     18  N   UNL A   1      34.314 -36.289 -32.470  0.00  0.00    -0.275 NA
ATOM     19  C   UNL A   1      33.814 -35.108 -32.775  0.00  0.00    +0.031 C 
BRANCH  19  20
ATOM     20  C   UNL A   1      33.270 -33.573 -31.595  0.00  0.00    -0.004 A 
ATOM     21  C   UNL A   1      33.978 -32.329 -31.380  0.00  0.00    -0.049 A 
ATOM     22  C   UNL A   1      33.546 -31.257 -30.567  0.00  0.00    -0.016 A 
ATOM     23  C   UNL A   1      32.328 -31.313 -29.936  0.00  0.00    +0.158 A 
ATOM     24  C   UNL A   1      31.519 -32.417 -30.110  0.00  0.00    +0.162 A 
ATOM     25  C   UNL A   1      31.955 -33.469 -30.941  0.00  0.00    -0.008 A 
BRANCH  23  26
ATOM     26  O   UNL A   1      31.922 -30.251 -29.186  0.00  0.00    -0.503 OA
ATOM     27  H   UNL A   1      32.477 -29.918 -28.507  0.00  0.00    +0.000 HD
ENDBRANCH  23  26
BRANCH  24  28
ATOM     28  O   UNL A   1      30.290 -32.357 -29.504  0.00  0.00    -0.491 OA
ATOM     29  C   UNL A   1      29.187 -32.209 -30.396  0.00  0.00    +0.079 C 
ENDBRANCH  24  28
ENDBRANCH  19  20
ENDBRANCH   9  18
TORSDOF 4
ENDMDL
MODEL 13
REMARK VINA RESULT:    -6.961      3.087      6.362
REMARK INTER + INTRA:          -1.711
REMARK INTER:                  -7.954
REMARK INTRA:                   6.243
REMARK UNBOUND:                 6.064
REMARK  Name = cpd119.pdb
REMARK  7 active torsions:
REMARK  status: ('A' for Active; 'I' for Inactive)
REMARK    1  A    between atoms: C_1  and  C_2
REMARK    2  A    between atoms: C_6  and  C_7
REMARK    3  A    between atoms: C_9  and  N_10
REMARK    4  A    between atoms: C_11  and  C_12
REMARK    5  A    between atoms: C_15  and  O_16
REMARK    6  A    between atoms: C_17  and  O_18
REMARK    7  A    between atoms: O_18  and  C_19
REMARK                            x       y       z     vdW  Elec       q    Type
REMARK                         _______ _______ _______ _____ _____    ______ ____
ROOT
ATOM      1  C   UNL A   1      44.767 -17.653 -36.328  0.00  0.00    -0.046 C 
ATOM      2  C   UNL A   1      45.465 -17.099 -37.525  0.00  0.00    -0.085 C 
ATOM      3  C   UNL A   1      45.489 -17.667 -38.751  0.00  0.00    -0.035 C 
ATOM      4  C   UNL A   1      46.387 -16.938 -40.164  0.00  0.00    +0.006 C 
ATOM      5  C   UNL A   1      45.039 -16.342 -40.799  0.00  0.00    -0.077 C 
ATOM      6  C   UNL A   1      43.757 -16.779 -40.478  0.00  0.00    -0.073 C 
ATOM      7  C   UNL A   1      42.542 -16.093 -41.040  0.00  0.00    -0.044 C 
ATOM      8  C   UNL A   1      43.331 -18.133 -39.526  0.00  0.00    +0.001 C 
ATOM      9  C   UNL A   1      44.615 -19.285 -39.265  0.00  0.00    +0.113 C 
ATOM     10  C   UNL A   1      45.682 -20.738 -40.081  0.00  0.00    -0.000 C 
ATOM     11  C   UNL A   1      45.606 -22.070 -40.053  0.00  0.00    -0.068 C 
ATOM     12  C   UNL A   1      46.633 -22.892 -40.774  0.00  0.00    +0.045 C 
ATOM     13  C   UNL A   1      47.493 -22.247 -41.890  0.00  0.00    +0.240 C 
ATOM     14  O   UNL A   1      47.926 -22.982 -42.779  0.00  0.00    -0.273 OA
ATOM     15  N   UNL A   1      47.859 -20.914 -41.851  0.00  0.00    -0.185 NA
ATOM     16  C   UNL A   1      47.139 -20.111 -41.145  0.00  0.00    +0.040 C 
ATOM     17  C   UNL A   1      47.521 -18.176 -41.230  0.00  0.00    -0.002 C 
ENDROOT
BRANCH   9  18
ATOM     18  N   UNL A   1      44.481 -19.276 -40.660  0.00  0.00    -0.275 NA
ATOM     19  C   UNL A   1      43.692 -20.273 -40.312  0.00  0.00    +0.031 C 
BRANCH  19  20
ATOM     20  C   UNL A   1      42.659 -20.592 -38.617  0.00  0.00    -0.004 A 
ATOM     21  C   UNL A   1      43.186 -20.783 -37.282  0.00  0.00    -0.049 A 
ATOM     22  C   UNL A   1      42.424 -20.972 -36.106  0.00  0.00    -0.016 A 
ATOM     23  C   UNL A   1      41.053 -20.929 -36.156  0.00  0.00    +0.158 A 
ATOM     24  C   UNL A   1      40.420 -20.687 -37.357  0.00  0.00    +0.162 A 
ATOM     25  C   UNL A   1      41.194 -20.480 -38.517  0.00  0.00    -0.008 A 
BRANCH  23  26
ATOM     26  O   UNL A   1      40.345 -21.081 -35.002  0.00  0.00    -0.503 OA
ATOM     27  H   UNL A   1      39.756 -20.408 -34.721  0.00  0.00    +0.000 HD
ENDBRANCH  23  26
BRANCH  24  28
ATOM     28  O   UNL A   1      39.053 -20.588 -37.301  0.00  0.00    -0.491 OA
ATOM     29  C   UNL A   1      38.538 -19.270 -37.484  0.00  0.00    +0.079 C 
ENDBRANCH  24  28
ENDBRANCH  19  20
ENDBRANCH   9  18
TORSDOF 4
ENDMDL
MODEL 14
REMARK VINA RESULT:    -6.945      4.130      6.057
REMARK INTER + INTRA:          -1.693
REMARK INTER:                  -7.932
REMARK INTRA:                   6.239
REMARK UNBOUND:                 6.064
REMARK  Name = cpd119.pdb
REMARK  7 active torsions:
REMARK  status: ('A' for Active; 'I' for Inactive)
REMARK    1  A    between atoms: C_1  and  C_2
REMARK    2  A    between atoms: C_6  and  C_7
REMARK    3  A    between atoms: C_9  and  N_10
REMARK    4  A    between atoms: C_11  and  C_12
REMARK    5  A    between atoms: C_15  and  O_16
REMARK    6  A    between atoms: C_17  and  O_18
REMARK    7  A    between atoms: O_18  and  C_19
REMARK                            x       y       z     vdW  Elec       q    Type
REMARK                         _______ _______ _______ _____ _____    ______ ____
ROOT
ATOM      1  C   UNL A   1      39.738 -17.723 -37.644  0.00  0.00    -0.046 C 
ATOM      2  C   UNL A   1      39.356 -17.604 -36.207  0.00  0.00    -0.085 C 
ATOM      3  C   UNL A   1      39.520 -18.564 -35.270  0.00  0.00    -0.035 C 
ATOM      4  C   UNL A   1      39.006 -18.351 -33.531  0.00  0.00    +0.006 C 
ATOM      5  C   UNL A   1      40.509 -18.052 -33.053  0.00  0.00    -0.077 C 
ATOM      6  C   UNL A   1      41.647 -18.385 -33.781  0.00  0.00    -0.073 C 
ATOM      7  C   UNL A   1      43.015 -17.972 -33.311  0.00  0.00    -0.044 C 
ATOM      8  C   UNL A   1      41.730 -19.331 -35.202  0.00  0.00    +0.001 C 
ATOM      9  C   UNL A   1      40.308 -20.283 -35.539  0.00  0.00    +0.113 C 
ATOM     10  C   UNL A   1      39.282 -21.901 -35.040  0.00  0.00    -0.000 C 
ATOM     11  C   UNL A   1      39.212 -23.140 -35.529  0.00  0.00    -0.068 C 
ATOM     12  C   UNL A   1      38.271 -24.134 -34.914  0.00  0.00    +0.045 C 
ATOM     13  C   UNL A   1      37.726 -23.896 -33.483  0.00  0.00    +0.240 C 
ATOM     14  O   UNL A   1      37.406 -24.884 -32.819  0.00  0.00    -0.273 OA
ATOM     15  N   UNL A   1      37.500 -22.625 -32.990  0.00  0.00    -0.185 NA
ATOM     16  C   UNL A   1      38.142 -21.646 -33.528  0.00  0.00    +0.040 C 
ATOM     17  C   UNL A   1      37.988 -19.853 -32.716  0.00  0.00    -0.002 C 
ENDROOT
BRANCH   9  18
ATOM     18  N   UNL A   1      40.719 -20.766 -34.290  0.00  0.00    -0.275 NA
ATOM     19  C   UNL A   1      41.340 -21.580 -35.120  0.00  0.00    +0.031 C 
BRANCH  19  20
ATOM     20  C   UNL A   1      41.982 -21.286 -37.003  0.00  0.00    -0.004 A 
ATOM     21  C   UNL A   1      41.204 -21.341 -38.222  0.00  0.00    -0.049 A 
ATOM     22  C   UNL A   1      41.685 -21.096 -39.528  0.00  0.00    -0.016 A 
ATOM     23  C   UNL A   1      42.989 -20.712 -39.725  0.00  0.00    +0.158 A 
ATOM     24  C   UNL A   1      43.825 -20.555 -38.640  0.00  0.00    +0.162 A 
ATOM     25  C   UNL A   1      43.325 -20.784 -37.342  0.00  0.00    -0.008 A 
BRANCH  23  26
ATOM     26  O   UNL A   1      43.416 -20.449 -40.991  0.00  0.00    -0.503 OA
ATOM     27  H   UNL A   1      43.701 -21.150 -41.545  0.00  0.00    +0.000 HD
ENDBRANCH  23  26
BRANCH  24  28
ATOM     28  O   UNL A   1      45.087 -20.098 -38.922  0.00  0.00    -0.491 OA
ATOM     29  C   UNL A   1      46.119 -21.078 -38.819  0.00  0.00    +0.079 C 
ENDBRANCH  24  28
ENDBRANCH  19  20
ENDBRANCH   9  18
TORSDOF 4
ENDMDL
MODEL 15
REMARK VINA RESULT:    -6.894      2.693      4.116
REMARK INTER + INTRA:          -1.637
REMARK INTER:                  -7.678
REMARK INTRA:                   6.041
REMARK UNBOUND:                 6.064
REMARK  Name = cpd119.pdb
REMARK  7 active torsions:
REMARK  status: ('A' for Active; 'I' for Inactive)
REMARK    1  A    between atoms: C_1  and  C_2
REMARK    2  A    between atoms: C_6  and  C_7
REMARK    3  A    between atoms: C_9  and  N_10
REMARK    4  A    between atoms: C_11  and  C_12
REMARK    5  A    between atoms: C_15  and  O_16
REMARK    6  A    between atoms: C_17  and  O_18
REMARK    7  A    between atoms: O_18  and  C_19
REMARK                            x       y       z     vdW  Elec       q    Type
REMARK                         _______ _______ _______ _____ _____    ______ ____
ROOT
ATOM      1  C   UNL A   1      43.458 -16.986 -41.519  0.00  0.00    -0.046 C 
ATOM      2  C   UNL A   1      43.843 -15.823 -40.668  0.00  0.00    -0.085 C 
ATOM      3  C   UNL A   1      44.692 -15.868 -39.618  0.00  0.00    -0.035 C 
ATOM      4  C   UNL A   1      45.097 -14.402 -38.607  0.00  0.00    +0.006 C 
ATOM      5  C   UNL A   1      46.506 -14.197 -39.349  0.00  0.00    -0.077 C 
ATOM      6  C   UNL A   1      47.158 -15.182 -40.085  0.00  0.00    -0.073 C 
ATOM      7  C   UNL A   1      48.423 -14.875 -40.838  0.00  0.00    -0.044 C 
ATOM      8  C   UNL A   1      46.740 -16.834 -40.206  0.00  0.00    +0.001 C 
ATOM      9  C   UNL A   1      45.631 -17.407 -38.987  0.00  0.00    +0.113 C 
ATOM     10  C   UNL A   1      45.438 -17.943 -37.092  0.00  0.00    -0.000 C 
ATOM     11  C   UNL A   1      45.440 -19.116 -36.457  0.00  0.00    -0.068 C 
ATOM     12  C   UNL A   1      45.221 -19.163 -34.973  0.00  0.00    +0.045 C 
ATOM     13  C   UNL A   1      45.438 -17.887 -34.121  0.00  0.00    +0.240 C 
ATOM     14  O   UNL A   1      45.756 -18.033 -32.939  0.00  0.00    -0.273 OA
ATOM     15  N   UNL A   1      45.187 -16.623 -34.622  0.00  0.00    -0.185 NA
ATOM     16  C   UNL A   1      45.201 -16.467 -35.901  0.00  0.00    +0.040 C 
ATOM     17  C   UNL A   1      45.042 -14.641 -36.633  0.00  0.00    -0.002 C 
ENDROOT
BRANCH   9  18
ATOM     18  N   UNL A   1      46.724 -16.962 -38.232  0.00  0.00    -0.275 NA
ATOM     19  C   UNL A   1      47.037 -18.222 -38.457  0.00  0.00    +0.031 C 
BRANCH  19  20
ATOM     20  C   UNL A   1      46.544 -19.440 -39.980  0.00  0.00    -0.004 A 
ATOM     21  C   UNL A   1      47.417 -19.975 -41.003  0.00  0.00    -0.049 A 
ATOM     22  C   UNL A   1      47.039 -20.856 -42.042  0.00  0.00    -0.016 A 
ATOM     23  C   UNL A   1      45.753 -21.331 -42.113  0.00  0.00    +0.158 A 
ATOM     24  C   UNL A   1      44.832 -20.953 -41.159  0.00  0.00    +0.162 A 
ATOM     25  C   UNL A   1      45.229 -20.088 -40.118  0.00  0.00    -0.008 A 
BRANCH  23  26
ATOM     26  O   UNL A   1      45.425 -22.206 -43.104  0.00  0.00    -0.503 OA
ATOM     27  H   UNL A   1      45.468 -21.936 -44.001  0.00  0.00    +0.000 HD
ENDBRANCH  23  26
BRANCH  24  28
ATOM     28  O   UNL A   1      43.592 -21.531 -41.264  0.00  0.00    -0.491 OA
ATOM     29  C   UNL A   1      42.686 -21.207 -40.213  0.00  0.00    +0.079 C 
ENDBRANCH  24  28
ENDBRANCH  19  20
ENDBRANCH   9  18
TORSDOF 4
ENDMDL
MODEL 16
REMARK VINA RESULT:    -6.885     20.037     22.879
REMARK INTER + INTRA:          -1.627
REMARK INTER:                  -7.669
REMARK INTRA:                   6.042
REMARK UNBOUND:                 6.064
REMARK  Name = cpd119.pdb
REMARK  7 active torsions:
REMARK  status: ('A' for Active; 'I' for Inactive)
REMARK    1  A    between atoms: C_1  and  C_2
REMARK    2  A    between atoms: C_6  and  C_7
REMARK    3  A    between atoms: C_9  and  N_10
REMARK    4  A    between atoms: C_11  and  C_12
REMARK    5  A    between atoms: C_15  and  O_16
REMARK    6  A    between atoms: C_17  and  O_18
REMARK    7  A    between atoms: O_18  and  C_19
REMARK                            x       y       z     vdW  Elec       q    Type
REMARK                         _______ _______ _______ _____ _____    ______ ____
ROOT
ATOM      1  C   UNL A   1      34.095 -36.940 -26.669  0.00  0.00    -0.046 C 
ATOM      2  C   UNL A   1      34.920 -38.125 -27.044  0.00  0.00    -0.085 C 
ATOM      3  C   UNL A   1      35.181 -38.531 -28.306  0.00  0.00    -0.035 C 
ATOM      4  C   UNL A   1      36.184 -40.008 -28.686  0.00  0.00    +0.006 C 
ATOM      5  C   UNL A   1      37.481 -39.125 -29.025  0.00  0.00    -0.077 C 
ATOM      6  C   UNL A   1      37.450 -37.767 -29.327  0.00  0.00    -0.073 C 
ATOM      7  C   UNL A   1      38.722 -36.990 -29.526  0.00  0.00    -0.044 C 
ATOM      8  C   UNL A   1      36.071 -36.796 -29.601  0.00  0.00    +0.001 C 
ATOM      9  C   UNL A   1      34.598 -37.677 -29.912  0.00  0.00    +0.113 C 
ATOM     10  C   UNL A   1      33.588 -38.729 -31.250  0.00  0.00    -0.000 C 
ATOM     11  C   UNL A   1      32.616 -38.437 -32.116  0.00  0.00    -0.068 C 
ATOM     12  C   UNL A   1      32.035 -39.518 -32.979  0.00  0.00    +0.045 C 
ATOM     13  C   UNL A   1      32.822 -40.833 -33.204  0.00  0.00    +0.240 C 
ATOM     14  O   UNL A   1      32.619 -41.453 -34.249  0.00  0.00    -0.273 OA
ATOM     15  N   UNL A   1      33.650 -41.363 -32.231  0.00  0.00    -0.185 NA
ATOM     16  C   UNL A   1      34.112 -40.565 -31.332  0.00  0.00    +0.040 C 
ATOM     17  C   UNL A   1      35.449 -41.253 -30.053  0.00  0.00    -0.002 C 
ENDROOT
BRANCH   9  18
ATOM     18  N   UNL A   1      35.439 -38.096 -30.951  0.00  0.00    -0.275 NA
ATOM     19  C   UNL A   1      34.853 -37.040 -31.478  0.00  0.00    +0.031 C 
BRANCH  19  20
ATOM     20  C   UNL A   1      34.101 -35.391 -30.606  0.00  0.00    -0.004 A 
ATOM     21  C   UNL A   1      34.760 -34.117 -30.406  0.00  0.00    -0.049 A 
ATOM     22  C   UNL A   1      34.186 -32.968 -29.817  0.00  0.00    -0.016 A 
ATOM     23  C   UNL A   1      32.870 -32.974 -29.425  0.00  0.00    +0.158 A 
ATOM     24  C   UNL A   1      32.105 -34.105 -29.621  0.00  0.00    +0.162 A 
ATOM     25  C   UNL A   1      32.686 -35.237 -30.228  0.00  0.00    -0.008 A 
BRANCH  23  26
ATOM     26  O   UNL A   1      32.333 -31.841 -28.892  0.00  0.00    -0.503 OA
ATOM     27  H   UNL A   1      31.436 -31.625 -29.056  0.00  0.00    +0.000 HD
ENDBRANCH  23  26
BRANCH  24  28
ATOM     28  O   UNL A   1      30.783 -33.999 -29.269  0.00  0.00    -0.491 OA
ATOM     29  C   UNL A   1      29.857 -34.287 -30.314  0.00  0.00    +0.079 C 
ENDBRANCH  24  28
ENDBRANCH  19  20
ENDBRANCH   9  18
TORSDOF 4
ENDMDL
MODEL 17
REMARK VINA RESULT:    -6.716      3.158      5.606
REMARK INTER + INTRA:          -1.437
REMARK INTER:                  -7.459
REMARK INTRA:                   6.022
REMARK UNBOUND:                 6.064
REMARK  Name = cpd119.pdb
REMARK  7 active torsions:
REMARK  status: ('A' for Active; 'I' for Inactive)
REMARK    1  A    between atoms: C_1  and  C_2
REMARK    2  A    between atoms: C_6  and  C_7
REMARK    3  A    between atoms: C_9  and  N_10
REMARK    4  A    between atoms: C_11  and  C_12
REMARK    5  A    between atoms: C_15  and  O_16
REMARK    6  A    between atoms: C_17  and  O_18
REMARK    7  A    between atoms: O_18  and  C_19
REMARK                            x       y       z     vdW  Elec       q    Type
REMARK                         _______ _______ _______ _____ _____    ______ ____
ROOT
ATOM      1  C   UNL A   1      46.352 -21.050 -38.754  0.00  0.00    -0.046 C 
ATOM      2  C   UNL A   1      47.023 -19.804 -38.284  0.00  0.00    -0.085 C 
ATOM      3  C   UNL A   1      46.444 -18.586 -38.199  0.00  0.00    -0.035 C 
ATOM      4  C   UNL A   1      47.339 -17.099 -37.633  0.00  0.00    +0.006 C 
ATOM      5  C   UNL A   1      46.684 -17.177 -36.171  0.00  0.00    -0.077 C 
ATOM      6  C   UNL A   1      45.530 -17.892 -35.863  0.00  0.00    -0.073 C 
ATOM      7  C   UNL A   1      45.043 -18.002 -34.445  0.00  0.00    -0.044 C 
ATOM      8  C   UNL A   1      44.463 -18.660 -36.955  0.00  0.00    +0.001 C 
ATOM      9  C   UNL A   1      44.629 -18.165 -38.620  0.00  0.00    +0.113 C 
ATOM     10  C   UNL A   1      44.252 -16.732 -39.932  0.00  0.00    -0.000 C 
ATOM     11  C   UNL A   1      43.291 -16.535 -40.837  0.00  0.00    -0.068 C 
ATOM     12  C   UNL A   1      43.335 -15.323 -41.720  0.00  0.00    +0.045 C 
ATOM     13  C   UNL A   1      44.197 -14.102 -41.313  0.00  0.00    +0.240 C 
ATOM     14  O   UNL A   1      43.850 -12.992 -41.721  0.00  0.00    -0.273 OA
ATOM     15  N   UNL A   1      45.376 -14.244 -40.603  0.00  0.00    -0.185 NA
ATOM     16  C   UNL A   1      45.534 -15.316 -39.906  0.00  0.00    +0.040 C 
ATOM     17  C   UNL A   1      47.115 -15.455 -38.732  0.00  0.00    -0.002 C 
ENDROOT
BRANCH   9  18
ATOM     18  N   UNL A   1      44.304 -16.968 -37.968  0.00  0.00    -0.275 NA
ATOM     19  C   UNL A   1      43.117 -17.433 -38.302  0.00  0.00    +0.031 C 
BRANCH  19  20
ATOM     20  C   UNL A   1      42.481 -19.322 -38.571  0.00  0.00    -0.004 A 
ATOM     21  C   UNL A   1      41.649 -20.110 -37.687  0.00  0.00    -0.049 A 
ATOM     22  C   UNL A   1      41.194 -21.426 -37.926  0.00  0.00    -0.016 A 
ATOM     23  C   UNL A   1      41.487 -22.055 -39.111  0.00  0.00    +0.158 A 
ATOM     24  C   UNL A   1      42.218 -21.392 -40.074  0.00  0.00    +0.162 A 
ATOM     25  C   UNL A   1      42.648 -20.071 -39.828  0.00  0.00    -0.008 A 
BRANCH  23  26
ATOM     26  O   UNL A   1      41.007 -23.311 -39.329  0.00  0.00    -0.503 OA
ATOM     27  H   UNL A   1      41.453 -24.053 -38.969  0.00  0.00    +0.000 HD
ENDBRANCH  23  26
BRANCH  24  28
ATOM     28  O   UNL A   1      42.401 -22.066 -41.254  0.00  0.00    -0.491 OA
ATOM     29  C   UNL A   1      43.523 -21.639 -42.023  0.00  0.00    +0.079 C 
ENDBRANCH  24  28
ENDBRANCH  19  20
ENDBRANCH   9  18
TORSDOF 4
ENDMDL
MODEL 18
REMARK VINA RESULT:    -6.664      3.575      4.721
REMARK INTER + INTRA:          -1.380
REMARK INTER:                  -7.411
REMARK INTRA:                   6.031
REMARK UNBOUND:                 6.064
REMARK  Name = cpd119.pdb
REMARK  7 active torsions:
REMARK  status: ('A' for Active; 'I' for Inactive)
REMARK    1  A    between atoms: C_1  and  C_2
REMARK    2  A    between atoms: C_6  and  C_7
REMARK    3  A    between atoms: C_9  and  N_10
REMARK    4  A    between atoms: C_11  and  C_12
REMARK    5  A    between atoms: C_15  and  O_16
REMARK    6  A    between atoms: C_17  and  O_18
REMARK    7  A    between atoms: O_18  and  C_19
REMARK                            x       y       z     vdW  Elec       q    Type
REMARK                         _______ _______ _______ _____ _____    ______ ____
ROOT
ATOM      1  C   UNL A   1      40.343 -19.649 -33.516  0.00  0.00    -0.046 C 
ATOM      2  C   UNL A   1      41.070 -18.448 -33.011  0.00  0.00    -0.085 C 
ATOM      3  C   UNL A   1      42.161 -17.893 -33.584  0.00  0.00    -0.035 C 
ATOM      4  C   UNL A   1      43.011 -16.433 -32.893  0.00  0.00    +0.006 C 
ATOM      5  C   UNL A   1      42.324 -15.446 -33.955  0.00  0.00    -0.077 C 
ATOM      6  C   UNL A   1      41.744 -15.858 -35.151  0.00  0.00    -0.073 C 
ATOM      7  C   UNL A   1      41.026 -14.880 -36.040  0.00  0.00    -0.044 C 
ATOM      8  C   UNL A   1      41.796 -17.418 -35.846  0.00  0.00    +0.001 C 
ATOM      9  C   UNL A   1      43.015 -18.478 -35.189  0.00  0.00    +0.113 C 
ATOM     10  C   UNL A   1      44.948 -18.902 -35.151  0.00  0.00    -0.000 C 
ATOM     11  C   UNL A   1      45.716 -19.781 -35.797  0.00  0.00    -0.068 C 
ATOM     12  C   UNL A   1      47.182 -19.863 -35.486  0.00  0.00    +0.045 C 
ATOM     13  C   UNL A   1      47.888 -18.678 -34.781  0.00  0.00    +0.240 C 
ATOM     14  O   UNL A   1      49.093 -18.524 -34.985  0.00  0.00    -0.273 OA
ATOM     15  N   UNL A   1      47.229 -17.874 -33.868  0.00  0.00    -0.185 NA
ATOM     16  C   UNL A   1      45.943 -17.821 -33.929  0.00  0.00    +0.040 C 
ATOM     17  C   UNL A   1      44.994 -16.534 -32.772  0.00  0.00    -0.002 C 
ENDROOT
BRANCH   9  18
ATOM     18  N   UNL A   1      43.768 -17.408 -35.689  0.00  0.00    -0.275 NA
ATOM     19  C   UNL A   1      43.723 -18.222 -36.724  0.00  0.00    +0.031 C 
BRANCH  19  20
ATOM     20  C   UNL A   1      42.341 -19.582 -37.258  0.00  0.00    -0.004 A 
ATOM     21  C   UNL A   1      41.487 -19.564 -38.426  0.00  0.00    -0.049 A 
ATOM     22  C   UNL A   1      40.549 -20.558 -38.786  0.00  0.00    -0.016 A 
ATOM     23  C   UNL A   1      40.423 -21.697 -38.030  0.00  0.00    +0.158 A 
ATOM     24  C   UNL A   1      41.226 -21.875 -36.924  0.00  0.00    +0.162 A 
ATOM     25  C   UNL A   1      42.172 -20.883 -36.589  0.00  0.00    -0.008 A 
BRANCH  23  26
ATOM     26  O   UNL A   1      39.535 -22.654 -38.420  0.00  0.00    -0.503 OA
ATOM     27  H   UNL A   1      38.956 -22.491 -39.139  0.00  0.00    +0.000 HD
ENDBRANCH  23  26
BRANCH  24  28
ATOM     28  O   UNL A   1      41.086 -23.073 -36.271  0.00  0.00    -0.491 OA
ATOM     29  C   UNL A   1      40.344 -23.013 -35.055  0.00  0.00    +0.079 C 
ENDBRANCH  24  28
ENDBRANCH  19  20
ENDBRANCH   9  18
TORSDOF 4
ENDMDL
MODEL 19
REMARK VINA RESULT:    -6.568      3.843      7.156
REMARK INTER + INTRA:          -1.272
REMARK INTER:                  -7.326
REMARK INTRA:                   6.054
REMARK UNBOUND:                 6.064
REMARK  Name = cpd119.pdb
REMARK  7 active torsions:
REMARK  status: ('A' for Active; 'I' for Inactive)
REMARK    1  A    between atoms: C_1  and  C_2
REMARK    2  A    between atoms: C_6  and  C_7
REMARK    3  A    between atoms: C_9  and  N_10
REMARK    4  A    between atoms: C_11  and  C_12
REMARK    5  A    between atoms: C_15  and  O_16
REMARK    6  A    between atoms: C_17  and  O_18
REMARK    7  A    between atoms: O_18  and  C_19
REMARK                            x       y       z     vdW  Elec       q    Type
REMARK                         _______ _______ _______ _____ _____    ______ ____
ROOT
ATOM      1  C   UNL A   1      38.382 -18.386 -37.344  0.00  0.00    -0.046 C 
ATOM      2  C   UNL A   1      39.633 -18.364 -38.156  0.00  0.00    -0.085 C 
ATOM      3  C   UNL A   1      40.834 -18.838 -37.758  0.00  0.00    -0.035 C 
ATOM      4  C   UNL A   1      42.329 -18.756 -38.804  0.00  0.00    +0.006 C 
ATOM      5  C   UNL A   1      42.200 -20.299 -39.226  0.00  0.00    -0.077 C 
ATOM      6  C   UNL A   1      41.451 -21.244 -38.532  0.00  0.00    -0.073 C 
ATOM      7  C   UNL A   1      41.297 -22.645 -39.056  0.00  0.00    -0.044 C 
ATOM      8  C   UNL A   1      40.684 -21.052 -37.017  0.00  0.00    +0.001 C 
ATOM      9  C   UNL A   1      41.221 -19.677 -36.087  0.00  0.00    +0.113 C 
ATOM     10  C   UNL A   1      42.675 -18.949 -34.958  0.00  0.00    -0.000 C 
ATOM     11  C   UNL A   1      42.870 -18.866 -33.641  0.00  0.00    -0.068 C 
ATOM     12  C   UNL A   1      44.103 -18.196 -33.109  0.00  0.00    +0.045 C 
ATOM     13  C   UNL A   1      45.334 -18.005 -34.029  0.00  0.00    +0.240 C 
ATOM     14  O   UNL A   1      46.445 -17.946 -33.498  0.00  0.00    -0.273 OA
ATOM     15  N   UNL A   1      45.204 -17.801 -35.391  0.00  0.00    -0.185 NA
ATOM     16  C   UNL A   1      44.120 -18.203 -35.960  0.00  0.00    +0.040 C 
ATOM     17  C   UNL A   1      43.991 -18.103 -37.927  0.00  0.00    -0.002 C 
ENDROOT
BRANCH   9  18
ATOM     18  N   UNL A   1      42.395 -20.426 -36.245  0.00  0.00    -0.275 NA
ATOM     19  C   UNL A   1      41.926 -20.884 -35.102  0.00  0.00    +0.031 C 
BRANCH  19  20
ATOM     20  C   UNL A   1      40.038 -21.008 -34.419  0.00  0.00    -0.004 A 
ATOM     21  C   UNL A   1      39.170 -22.166 -34.425  0.00  0.00    -0.049 A 
ATOM     22  C   UNL A   1      37.857 -22.224 -33.904  0.00  0.00    -0.016 A 
ATOM     23  C   UNL A   1      37.313 -21.132 -33.274  0.00  0.00    +0.158 A 
ATOM     24  C   UNL A   1      38.059 -19.980 -33.139  0.00  0.00    +0.162 A 
ATOM     25  C   UNL A   1      39.375 -19.945 -33.646  0.00  0.00    -0.008 A 
BRANCH  23  26
ATOM     26  O   UNL A   1      36.059 -21.227 -32.752  0.00  0.00    -0.503 OA
ATOM     27  H   UNL A   1      35.517 -21.962 -32.964  0.00  0.00    +0.000 HD
ENDBRANCH  23  26
BRANCH  24  28
ATOM     28  O   UNL A   1      37.466 -18.965 -32.432  0.00  0.00    -0.491 OA
ATOM     29  C   UNL A   1      38.064 -17.682 -32.605  0.00  0.00    +0.079 C 
ENDBRANCH  24  28
ENDBRANCH  19  20
ENDBRANCH   9  18
TORSDOF 4
ENDMDL
MODEL 20
REMARK VINA RESULT:    -6.500      2.346      4.270
REMARK INTER + INTRA:          -1.197
REMARK INTER:                  -7.441
REMARK INTRA:                   6.244
REMARK UNBOUND:                 6.064
REMARK  Name = cpd119.pdb
REMARK  7 active torsions:
REMARK  status: ('A' for Active; 'I' for Inactive)
REMARK    1  A    between atoms: C_1  and  C_2
REMARK    2  A    between atoms: C_6  and  C_7
REMARK    3  A    between atoms: C_9  and  N_10
REMARK    4  A    between atoms: C_11  and  C_12
REMARK    5  A    between atoms: C_15  and  O_16
REMARK    6  A    between atoms: C_17  and  O_18
REMARK    7  A    between atoms: O_18  and  C_19
REMARK                            x       y       z     vdW  Elec       q    Type
REMARK                         _______ _______ _______ _____ _____    ______ ____
ROOT
ATOM      1  C   UNL A   1      44.602 -16.592 -39.540  0.00  0.00    -0.046 C 
ATOM      2  C   UNL A   1      44.692 -16.349 -38.071  0.00  0.00    -0.085 C 
ATOM      3  C   UNL A   1      44.537 -17.286 -37.110  0.00  0.00    -0.035 C 
ATOM      4  C   UNL A   1      44.640 -16.907 -35.328  0.00  0.00    +0.006 C 
ATOM      5  C   UNL A   1      46.135 -17.482 -35.223  0.00  0.00    -0.077 C 
ATOM      6  C   UNL A   1      46.714 -18.342 -36.152  0.00  0.00    -0.073 C 
ATOM      7  C   UNL A   1      48.157 -18.748 -36.035  0.00  0.00    -0.044 C 
ATOM      8  C   UNL A   1      45.945 -19.122 -37.464  0.00  0.00    +0.001 C 
ATOM      9  C   UNL A   1      44.203 -19.146 -37.390  0.00  0.00    +0.113 C 
ATOM     10  C   UNL A   1      42.626 -19.980 -36.531  0.00  0.00    -0.000 C 
ATOM     11  C   UNL A   1      41.796 -20.966 -36.877  0.00  0.00    -0.068 C 
ATOM     12  C   UNL A   1      40.648 -21.325 -35.982  0.00  0.00    +0.045 C 
ATOM     13  C   UNL A   1      40.666 -20.894 -34.494  0.00  0.00    +0.240 C 
ATOM     14  O   UNL A   1      40.038 -21.584 -33.689  0.00  0.00    -0.273 OA
ATOM     15  N   UNL A   1      41.273 -19.722 -34.080  0.00  0.00    -0.185 NA
ATOM     16  C   UNL A   1      42.189 -19.219 -34.834  0.00  0.00    +0.040 C 
ATOM     17  C   UNL A   1      43.205 -17.661 -34.174  0.00  0.00    -0.002 C 
ENDROOT
BRANCH   9  18
ATOM     18  N   UNL A   1      44.575 -19.828 -36.224  0.00  0.00    -0.275 NA
ATOM     19  C   UNL A   1      44.398 -20.816 -37.078  0.00  0.00    +0.031 C 
BRANCH  19  20
ATOM     20  C   UNL A   1      44.589 -20.862 -39.080  0.00  0.00    -0.004 A 
ATOM     21  C   UNL A   1      43.799 -20.150 -40.061  0.00  0.00    -0.049 A 
ATOM     22  C   UNL A   1      43.986 -20.182 -41.462  0.00  0.00    -0.016 A 
ATOM     23  C   UNL A   1      45.027 -20.894 -42.005  0.00  0.00    +0.158 A 
ATOM     24  C   UNL A   1      45.900 -21.567 -41.177  0.00  0.00    +0.162 A 
ATOM     25  C   UNL A   1      45.712 -21.508 -39.780  0.00  0.00    -0.008 A 
BRANCH  23  26
ATOM     26  O   UNL A   1      45.203 -20.879 -43.356  0.00  0.00    -0.503 OA
ATOM     27  H   UNL A   1      44.523 -21.192 -43.920  0.00  0.00    +0.000 HD
ENDBRANCH  23  26
BRANCH  24  28
ATOM     28  O   UNL A   1      46.952 -22.189 -41.799  0.00  0.00    -0.491 OA
ATOM     29  C   UNL A   1      48.208 -22.052 -41.137  0.00  0.00    +0.079 C 
ENDBRANCH  24  28
ENDBRANCH  19  20
ENDBRANCH   9  18
TORSDOF 4
ENDMDL
