MODEL 1
REMARK VINA RESULT:    -9.153      0.000      0.000
REMARK INTER + INTRA:         -11.841
REMARK INTER:                 -11.026
REMARK INTRA:                  -0.815
REMARK UNBOUND:                -0.815
REMARK  Name = cpd130.pdb
REMARK  5 active torsions:
REMARK  status: ('A' for Active; 'I' for Inactive)
REMARK    1  A    between atoms: C_1  and  O_2
REMARK    2  A    between atoms: O_2  and  C_3
REMARK    3  A    between atoms: C_12  and  O_13
REMARK    4  A    between atoms: N_19  and  C_20
REMARK    5  A    between atoms: C_20  and  C_21
REMARK                            x       y       z     vdW  Elec       q    Type
REMARK                         _______ _______ _______ _____ _____    ______ ____
ROOT
ATOM      1  C   UNL     1      32.221 -33.445 -29.575  0.00  0.00    +0.162 A 
ATOM      2  C   UNL     1      32.861 -32.302 -30.058  0.00  0.00    -0.016 A 
ATOM      3  C   UNL     1      34.225 -32.336 -30.420  0.00  0.00    -0.053 A 
ATOM      4  C   UNL     1      34.995 -33.504 -30.286  0.00  0.00    -0.026 A 
ATOM      5  C   UNL     1      34.384 -34.584 -29.665  0.00  0.00    +0.016 A 
ATOM      6  C   UNL     1      33.007 -34.573 -29.397  0.00  0.00    +0.167 A 
ATOM      7  O   UNL     1      32.523 -35.826 -29.043  0.00  0.00    -0.484 OA
ATOM      8  C   UNL     1      33.731 -36.439 -28.572  0.00  0.00    +0.116 C 
ATOM      9  C   UNL     1      33.728 -37.955 -28.432  0.00  0.00    +0.015 C 
ATOM     10  C   UNL     1      35.065 -38.381 -27.781  0.00  0.00    +0.077 C 
ATOM     11  C   UNL     1      36.203 -37.393 -27.927  0.00  0.00    -0.059 C 
ATOM     12  C   UNL     1      36.136 -36.267 -28.668  0.00  0.00    -0.071 C 
ATOM     13  C   UNL     1      34.898 -35.972 -29.479  0.00  0.00    +0.056 C 
ATOM     14  C   UNL     1      35.006 -36.602 -30.892  0.00  0.00    -0.023 C 
ATOM     15  C   UNL     1      35.807 -35.762 -31.922  0.00  0.00    +0.001 C 
ATOM     16  N   UNL     1      36.853 -34.932 -31.302  0.00  0.00    -0.294 N 
ATOM     17  C   UNL     1      36.371 -33.583 -30.912  0.00  0.00    +0.025 C 
ATOM     18  H   UNL     1      37.113 -35.432 -30.452  0.00  0.00    +0.000 HD
ENDROOT
BRANCH   1  20
ATOM     19  C   UNL     1      30.216 -32.372 -28.893  0.00  0.00    +0.079 C 
ATOM     20  O   UNL     1      30.897 -33.560 -29.268  0.00  0.00    -0.491 OA
ENDBRANCH   1  20
BRANCH  10  21
ATOM     21  O   UNL     1      34.868 -38.534 -26.378  0.00  0.00    -0.388 OA
ATOM     22  H   UNL     1      34.224 -39.241 -26.217  0.00  0.00    +0.000 HD
ENDBRANCH  10  21
BRANCH  16  23
ATOM     23  C   UNL     1      38.045 -34.798 -32.157  0.00  0.00    +0.024 C 
BRANCH  23  24
ATOM     24  C   UNL     1      39.164 -35.751 -31.782  0.00  0.00    -0.033 A 
ATOM     25  C   UNL     1      39.052 -36.578 -30.653  0.00  0.00    -0.056 A 
ATOM     26  C   UNL     1      40.088 -37.444 -30.299  0.00  0.00    -0.047 A 
ATOM     27  C   UNL     1      41.248 -37.481 -31.068  0.00  0.00    +0.018 A 
ATOM     28 BR   UNL     1      42.653 -38.653 -30.590  0.00  0.00    -0.050 Br
ATOM     29  C   UNL     1      41.383 -36.660 -32.186  0.00  0.00    -0.047 A 
ATOM     30  C   UNL     1      40.344 -35.795 -32.540  0.00  0.00    -0.056 A 
ENDBRANCH  23  24
ENDBRANCH  16  23
TORSDOF 4
ENDMDL
MODEL 2
REMARK VINA RESULT:    -8.386      2.295      4.260
REMARK INTER + INTRA:         -10.917
REMARK INTER:                 -10.351
REMARK INTRA:                  -0.566
REMARK UNBOUND:                -0.815
REMARK  Name = cpd130.pdb
REMARK  5 active torsions:
REMARK  status: ('A' for Active; 'I' for Inactive)
REMARK    1  A    between atoms: C_1  and  O_2
REMARK    2  A    between atoms: O_2  and  C_3
REMARK    3  A    between atoms: C_12  and  O_13
REMARK    4  A    between atoms: N_19  and  C_20
REMARK    5  A    between atoms: C_20  and  C_21
REMARK                            x       y       z     vdW  Elec       q    Type
REMARK                         _______ _______ _______ _____ _____    ______ ____
ROOT
ATOM      1  C   UNL     1      31.697 -37.409 -31.669  0.00  0.00    +0.162 A 
ATOM      2  C   UNL     1      32.330 -38.647 -31.795  0.00  0.00    -0.016 A 
ATOM      3  C   UNL     1      33.679 -38.813 -31.412  0.00  0.00    -0.053 A 
ATOM      4  C   UNL     1      34.441 -37.741 -30.918  0.00  0.00    -0.026 A 
ATOM      5  C   UNL     1      33.844 -36.489 -30.941  0.00  0.00    +0.016 A 
ATOM      6  C   UNL     1      32.478 -36.350 -31.233  0.00  0.00    +0.167 A 
ATOM      7  O   UNL     1      31.996 -35.082 -30.934  0.00  0.00    -0.484 OA
ATOM      8  C   UNL     1      33.215 -34.329 -30.991  0.00  0.00    +0.116 C 
ATOM      9  C   UNL     1      33.203 -32.945 -30.359  0.00  0.00    +0.015 C 
ATOM     10  C   UNL     1      34.560 -32.265 -30.660  0.00  0.00    +0.077 C 
ATOM     11  C   UNL     1      35.701 -33.207 -30.982  0.00  0.00    -0.059 C 
ATOM     12  C   UNL     1      35.617 -34.551 -30.902  0.00  0.00    -0.071 C 
ATOM     13  C   UNL     1      34.352 -35.197 -30.393  0.00  0.00    +0.056 C 
ATOM     14  C   UNL     1      34.399 -35.355 -28.851  0.00  0.00    -0.023 C 
ATOM     15  C   UNL     1      35.168 -36.604 -28.345  0.00  0.00    +0.001 C 
ATOM     16  N   UNL     1      36.245 -37.027 -29.255  0.00  0.00    -0.294 N 
ATOM     17  C   UNL     1      35.791 -37.999 -30.282  0.00  0.00    +0.025 C 
ATOM     18  H   UNL     1      36.533 -36.173 -29.734  0.00  0.00    +0.000 HD
ENDROOT
BRANCH   1  20
ATOM     19  C   UNL     1      30.028 -36.923 -33.286  0.00  0.00    +0.079 C 
ATOM     20  O   UNL     1      30.385 -37.142 -31.929  0.00  0.00    -0.491 OA
ENDBRANCH   1  20
BRANCH  10  21
ATOM     21  O   UNL     1      34.416 -31.432 -31.808  0.00  0.00    -0.388 OA
ATOM     22  H   UNL     1      35.263 -31.380 -32.277  0.00  0.00    +0.000 HD
ENDBRANCH  10  21
BRANCH  16  23
ATOM     23  C   UNL     1      37.404 -37.581 -28.535  0.00  0.00    +0.024 C 
BRANCH  23  24
ATOM     24  C   UNL     1      38.706 -37.455 -29.303  0.00  0.00    -0.033 A 
ATOM     25  C   UNL     1      39.850 -38.159 -28.893  0.00  0.00    -0.056 A 
ATOM     26  C   UNL     1      41.052 -38.032 -29.590  0.00  0.00    -0.047 A 
ATOM     27  C   UNL     1      41.121 -37.191 -30.697  0.00  0.00    +0.018 A 
ATOM     28 BR   UNL     1      42.749 -37.016 -31.643  0.00  0.00    -0.050 Br
ATOM     29  C   UNL     1      39.999 -36.475 -31.113  0.00  0.00    -0.047 A 
ATOM     30  C   UNL     1      38.796 -36.605 -30.415  0.00  0.00    -0.056 A 
ENDBRANCH  23  24
ENDBRANCH  16  23
TORSDOF 4
ENDMDL
MODEL 3
REMARK VINA RESULT:    -8.209      2.187      3.287
REMARK INTER + INTRA:         -10.704
REMARK INTER:                  -9.859
REMARK INTRA:                  -0.845
REMARK UNBOUND:                -0.815
REMARK  Name = cpd130.pdb
REMARK  5 active torsions:
REMARK  status: ('A' for Active; 'I' for Inactive)
REMARK    1  A    between atoms: C_1  and  O_2
REMARK    2  A    between atoms: O_2  and  C_3
REMARK    3  A    between atoms: C_12  and  O_13
REMARK    4  A    between atoms: N_19  and  C_20
REMARK    5  A    between atoms: C_20  and  C_21
REMARK                            x       y       z     vdW  Elec       q    Type
REMARK                         _______ _______ _______ _____ _____    ______ ____
ROOT
ATOM      1  C   UNL     1      32.058 -37.461 -27.676  0.00  0.00    +0.162 A 
ATOM      2  C   UNL     1      32.229 -36.075 -27.674  0.00  0.00    -0.016 A 
ATOM      3  C   UNL     1      33.394 -35.488 -28.214  0.00  0.00    -0.053 A 
ATOM      4  C   UNL     1      34.433 -36.270 -28.747  0.00  0.00    -0.026 A 
ATOM      5  C   UNL     1      34.315 -37.645 -28.605  0.00  0.00    +0.016 A 
ATOM      6  C   UNL     1      33.115 -38.219 -28.155  0.00  0.00    +0.167 A 
ATOM      7  O   UNL     1      33.080 -39.595 -28.344  0.00  0.00    -0.484 OA
ATOM      8  C   UNL     1      34.484 -39.879 -28.395  0.00  0.00    +0.116 C 
ATOM      9  C   UNL     1      34.897 -41.229 -28.965  0.00  0.00    +0.015 C 
ATOM     10  C   UNL     1      36.427 -41.378 -28.792  0.00  0.00    +0.077 C 
ATOM     11  C   UNL     1      37.193 -40.081 -28.641  0.00  0.00    -0.059 C 
ATOM     12  C   UNL     1      36.639 -38.856 -28.765  0.00  0.00    -0.071 C 
ATOM     13  C   UNL     1      35.187 -38.724 -29.154  0.00  0.00    +0.056 C 
ATOM     14  C   UNL     1      35.034 -38.680 -30.696  0.00  0.00    -0.023 C 
ATOM     15  C   UNL     1      35.269 -37.286 -31.337  0.00  0.00    +0.001 C 
ATOM     16  N   UNL     1      36.211 -36.451 -30.573  0.00  0.00    -0.294 N 
ATOM     17  C   UNL     1      35.544 -35.617 -29.542  0.00  0.00    +0.025 C 
ATOM     18  H   UNL     1      36.821 -37.115 -30.095  0.00  0.00    +0.000 HD
ENDROOT
BRANCH   1  20
ATOM     19  C   UNL     1      30.857 -38.427 -25.871  0.00  0.00    +0.079 C 
ATOM     20  O   UNL     1      30.951 -38.139 -27.258  0.00  0.00    -0.491 OA
ENDBRANCH   1  20
BRANCH  10  21
ATOM     21  O   UNL     1      36.688 -42.118 -27.602  0.00  0.00    -0.388 OA
ATOM     22  H   UNL     1      37.215 -41.576 -26.994  0.00  0.00    +0.000 HD
ENDBRANCH  10  21
BRANCH  16  23
ATOM     23  C   UNL     1      37.033 -35.592 -31.442  0.00  0.00    +0.024 C 
BRANCH  23  24
ATOM     24  C   UNL     1      38.496 -35.991 -31.472  0.00  0.00    -0.033 A 
ATOM     25  C   UNL     1      39.329 -35.577 -32.523  0.00  0.00    -0.056 A 
ATOM     26  C   UNL     1      40.672 -35.956 -32.560  0.00  0.00    -0.047 A 
ATOM     27  C   UNL     1      41.188 -36.761 -31.548  0.00  0.00    +0.018 A 
ATOM     28 BR   UNL     1      43.007 -37.277 -31.595  0.00  0.00    -0.050 Br
ATOM     29  C   UNL     1      40.374 -37.192 -30.502  0.00  0.00    -0.047 A 
ATOM     30  C   UNL     1      39.031 -36.811 -30.467  0.00  0.00    -0.056 A 
ENDBRANCH  23  24
ENDBRANCH  16  23
TORSDOF 4
ENDMDL
MODEL 4
REMARK VINA RESULT:    -7.892      3.748      7.316
REMARK INTER + INTRA:         -10.322
REMARK INTER:                  -9.551
REMARK INTRA:                  -0.770
REMARK UNBOUND:                -0.815
REMARK  Name = cpd130.pdb
REMARK  5 active torsions:
REMARK  status: ('A' for Active; 'I' for Inactive)
REMARK    1  A    between atoms: C_1  and  O_2
REMARK    2  A    between atoms: O_2  and  C_3
REMARK    3  A    between atoms: C_12  and  O_13
REMARK    4  A    between atoms: N_19  and  C_20
REMARK    5  A    between atoms: C_20  and  C_21
REMARK                            x       y       z     vdW  Elec       q    Type
REMARK                         _______ _______ _______ _____ _____    ______ ____
ROOT
ATOM      1  C   UNL     1      39.599 -36.054 -31.137  0.00  0.00    +0.162 A 
ATOM      2  C   UNL     1      40.223 -37.031 -30.358  0.00  0.00    -0.016 A 
ATOM      3  C   UNL     1      39.476 -37.826 -29.462  0.00  0.00    -0.053 A 
ATOM      4  C   UNL     1      38.091 -37.651 -29.299  0.00  0.00    -0.026 A 
ATOM      5  C   UNL     1      37.516 -36.579 -29.967  0.00  0.00    +0.016 A 
ATOM      6  C   UNL     1      38.244 -35.856 -30.924  0.00  0.00    +0.167 A 
ATOM      7  O   UNL     1      37.437 -35.019 -31.685  0.00  0.00    -0.484 OA
ATOM      8  C   UNL     1      36.330 -34.854 -30.790  0.00  0.00    +0.116 C 
ATOM      9  C   UNL     1      35.040 -34.304 -31.380  0.00  0.00    +0.015 C 
ATOM     10  C   UNL     1      34.039 -34.075 -30.224  0.00  0.00    +0.077 C 
ATOM     11  C   UNL     1      34.299 -34.883 -28.969  0.00  0.00    -0.059 C 
ATOM     12  C   UNL     1      35.249 -35.836 -28.869  0.00  0.00    -0.071 C 
ATOM     13  C   UNL     1      36.076 -36.206 -30.076  0.00  0.00    +0.056 C 
ATOM     14  C   UNL     1      35.384 -37.329 -30.890  0.00  0.00    -0.023 C 
ATOM     15  C   UNL     1      35.628 -38.767 -30.359  0.00  0.00    +0.001 C 
ATOM     16  N   UNL     1      35.851 -38.815 -28.905  0.00  0.00    -0.294 N 
ATOM     17  C   UNL     1      37.281 -38.674 -28.531  0.00  0.00    +0.025 C 
ATOM     18  H   UNL     1      35.348 -38.007 -28.537  0.00  0.00    +0.000 HD
ENDROOT
BRANCH   1  20
ATOM     19  C   UNL     1      41.185 -35.898 -32.897  0.00  0.00    +0.079 C 
ATOM     20  O   UNL     1      40.194 -35.280 -32.090  0.00  0.00    -0.491 OA
ENDBRANCH   1  20
BRANCH  10  21
ATOM     21  O   UNL     1      34.103 -32.709 -29.819  0.00  0.00    -0.388 OA
ATOM     22  H   UNL     1      33.218 -32.404 -29.568  0.00  0.00    +0.000 HD
ENDBRANCH  10  21
BRANCH  16  23
ATOM     23  C   UNL     1      35.302 -40.036 -28.292  0.00  0.00    +0.024 C 
BRANCH  23  24
ATOM     24  C   UNL     1      34.282 -39.757 -27.205  0.00  0.00    -0.033 A 
ATOM     25  C   UNL     1      34.288 -38.535 -26.514  0.00  0.00    -0.056 A 
ATOM     26  C   UNL     1      33.358 -38.284 -25.503  0.00  0.00    -0.047 A 
ATOM     27  C   UNL     1      32.422 -39.259 -25.170  0.00  0.00    +0.018 A 
ATOM     28 BR   UNL     1      31.162 -38.922 -23.802  0.00  0.00    -0.050 Br
ATOM     29  C   UNL     1      32.407 -40.483 -25.838  0.00  0.00    -0.047 A 
ATOM     30  C   UNL     1      33.337 -40.732 -26.850  0.00  0.00    -0.056 A 
ENDBRANCH  23  24
ENDBRANCH  16  23
TORSDOF 4
ENDMDL
MODEL 5
REMARK VINA RESULT:    -7.870      3.675      7.165
REMARK INTER + INTRA:         -10.295
REMARK INTER:                  -9.692
REMARK INTRA:                  -0.603
REMARK UNBOUND:                -0.815
REMARK  Name = cpd130.pdb
REMARK  5 active torsions:
REMARK  status: ('A' for Active; 'I' for Inactive)
REMARK    1  A    between atoms: C_1  and  O_2
REMARK    2  A    between atoms: O_2  and  C_3
REMARK    3  A    between atoms: C_12  and  O_13
REMARK    4  A    between atoms: N_19  and  C_20
REMARK    5  A    between atoms: C_20  and  C_21
REMARK                            x       y       z     vdW  Elec       q    Type
REMARK                         _______ _______ _______ _____ _____    ______ ____
ROOT
ATOM      1  C   UNL     1      38.450 -35.900 -31.164  0.00  0.00    +0.162 A 
ATOM      2  C   UNL     1      39.073 -36.863 -30.367  0.00  0.00    -0.016 A 
ATOM      3  C   UNL     1      38.363 -37.523 -29.341  0.00  0.00    -0.053 A 
ATOM      4  C   UNL     1      37.019 -37.222 -29.064  0.00  0.00    -0.026 A 
ATOM      5  C   UNL     1      36.461 -36.160 -29.762  0.00  0.00    +0.016 A 
ATOM      6  C   UNL     1      37.142 -35.576 -30.842  0.00  0.00    +0.167 A 
ATOM      7  O   UNL     1      36.327 -34.735 -31.591  0.00  0.00    -0.484 OA
ATOM      8  C   UNL     1      35.331 -34.410 -30.612  0.00  0.00    +0.116 C 
ATOM      9  C   UNL     1      34.033 -33.802 -31.123  0.00  0.00    +0.015 C 
ATOM     10  C   UNL     1      33.174 -33.403 -29.901  0.00  0.00    +0.077 C 
ATOM     11  C   UNL     1      33.497 -34.131 -28.613  0.00  0.00    -0.059 C 
ATOM     12  C   UNL     1      34.379 -35.150 -28.522  0.00  0.00    -0.071 C 
ATOM     13  C   UNL     1      35.050 -35.678 -29.766  0.00  0.00    +0.056 C 
ATOM     14  C   UNL     1      34.197 -36.799 -30.414  0.00  0.00    -0.023 C 
ATOM     15  C   UNL     1      34.384 -38.207 -29.789  0.00  0.00    +0.001 C 
ATOM     16  N   UNL     1      34.749 -38.162 -28.363  0.00  0.00    -0.294 N 
ATOM     17  C   UNL     1      36.216 -38.112 -28.139  0.00  0.00    +0.025 C 
ATOM     18  H   UNL     1      34.347 -37.289 -28.019  0.00  0.00    +0.000 HD
ENDROOT
BRANCH   1  20
ATOM     19  C   UNL     1      40.141 -35.854 -32.829  0.00  0.00    +0.079 C 
ATOM     20  O   UNL     1      39.002 -35.254 -32.231  0.00  0.00    -0.491 OA
ENDBRANCH   1  20
BRANCH  10  21
ATOM     21  O   UNL     1      33.381 -32.020 -29.620  0.00  0.00    -0.388 OA
ATOM     22  H   UNL     1      32.526 -31.591 -29.460  0.00  0.00    +0.000 HD
ENDBRANCH  10  21
BRANCH  16  23
ATOM     23  C   UNL     1      34.174 -39.283 -27.601  0.00  0.00    +0.024 C 
BRANCH  23  24
ATOM     24  C   UNL     1      33.904 -38.945 -26.147  0.00  0.00    -0.033 A 
ATOM     25  C   UNL     1      33.926 -37.613 -25.705  0.00  0.00    -0.056 A 
ATOM     26  C   UNL     1      33.691 -37.303 -24.364  0.00  0.00    -0.047 A 
ATOM     27  C   UNL     1      33.443 -38.327 -23.454  0.00  0.00    +0.018 A 
ATOM     28 BR   UNL     1      33.126 -37.910 -21.637  0.00  0.00    -0.050 Br
ATOM     29  C   UNL     1      33.428 -39.656 -23.871  0.00  0.00    -0.047 A 
ATOM     30  C   UNL     1      33.661 -39.964 -25.214  0.00  0.00    -0.056 A 
ENDBRANCH  23  24
ENDBRANCH  16  23
TORSDOF 4
ENDMDL
MODEL 6
REMARK VINA RESULT:    -7.539     20.021     22.402
REMARK INTER + INTRA:          -9.897
REMARK INTER:                  -9.202
REMARK INTRA:                  -0.695
REMARK UNBOUND:                -0.815
REMARK  Name = cpd130.pdb
REMARK  5 active torsions:
REMARK  status: ('A' for Active; 'I' for Inactive)
REMARK    1  A    between atoms: C_1  and  O_2
REMARK    2  A    between atoms: O_2  and  C_3
REMARK    3  A    between atoms: C_12  and  O_13
REMARK    4  A    between atoms: N_19  and  C_20
REMARK    5  A    between atoms: C_20  and  C_21
REMARK                            x       y       z     vdW  Elec       q    Type
REMARK                         _______ _______ _______ _____ _____    ______ ____
ROOT
ATOM      1  C   UNL     1      46.030 -22.368 -41.546  0.00  0.00    +0.162 A 
ATOM      2  C   UNL     1      45.430 -21.954 -42.737  0.00  0.00    -0.016 A 
ATOM      3  C   UNL     1      44.788 -20.700 -42.825  0.00  0.00    -0.053 A 
ATOM      4  C   UNL     1      44.702 -19.837 -41.719  0.00  0.00    -0.026 A 
ATOM      5  C   UNL     1      45.169 -20.327 -40.508  0.00  0.00    +0.016 A 
ATOM      6  C   UNL     1      45.889 -21.530 -40.451  0.00  0.00    +0.167 A 
ATOM      7  O   UNL     1      46.515 -21.718 -39.225  0.00  0.00    -0.484 OA
ATOM      8  C   UNL     1      45.696 -20.885 -38.393  0.00  0.00    +0.116 C 
ATOM      9  C   UNL     1      46.257 -20.505 -37.030  0.00  0.00    +0.015 C 
ATOM     10  C   UNL     1      45.162 -19.735 -36.256  0.00  0.00    +0.077 C 
ATOM     11  C   UNL     1      44.092 -19.089 -37.112  0.00  0.00    -0.059 C 
ATOM     12  C   UNL     1      44.122 -19.058 -38.461  0.00  0.00    -0.071 C 
ATOM     13  C   UNL     1      45.310 -19.620 -39.202  0.00  0.00    +0.056 C 
ATOM     14  C   UNL     1      46.399 -18.534 -39.398  0.00  0.00    -0.023 C 
ATOM     15  C   UNL     1      46.169 -17.589 -40.608  0.00  0.00    +0.001 C 
ATOM     16  N   UNL     1      44.745 -17.405 -40.935  0.00  0.00    -0.294 N 
ATOM     17  C   UNL     1      44.237 -18.407 -41.905  0.00  0.00    +0.025 C 
ATOM     18  H   UNL     1      44.255 -17.545 -40.051  0.00  0.00    +0.000 HD
ENDROOT
BRANCH   1  20
ATOM     19  C   UNL     1      48.047 -23.563 -41.922  0.00  0.00    +0.079 C 
ATOM     20  O   UNL     1      46.745 -23.515 -41.358  0.00  0.00    -0.491 OA
ENDBRANCH   1  20
BRANCH  10  21
ATOM     21  O   UNL     1      44.471 -20.646 -35.403  0.00  0.00    -0.388 OA
ATOM     22  H   UNL     1      45.108 -21.099 -34.830  0.00  0.00    +0.000 HD
ENDBRANCH  10  21
BRANCH  16  23
ATOM     23  C   UNL     1      44.454 -16.050 -41.431  0.00  0.00    +0.024 C 
BRANCH  23  24
ATOM     24  C   UNL     1      43.088 -15.537 -41.014  0.00  0.00    -0.033 A 
ATOM     25  C   UNL     1      42.561 -14.365 -41.578  0.00  0.00    -0.056 A 
ATOM     26  C   UNL     1      41.311 -13.884 -41.184  0.00  0.00    -0.047 A 
ATOM     27  C   UNL     1      40.584 -14.570 -40.214  0.00  0.00    +0.018 A 
ATOM     28 BR   UNL     1      38.891 -13.921 -39.678  0.00  0.00    -0.050 Br
ATOM     29  C   UNL     1      41.096 -15.729 -39.635  0.00  0.00    -0.047 A 
ATOM     30  C   UNL     1      42.346 -16.210 -40.031  0.00  0.00    -0.056 A 
ENDBRANCH  23  24
ENDBRANCH  16  23
TORSDOF 4
ENDMDL
MODEL 7
REMARK VINA RESULT:    -7.403      2.635      5.265
REMARK INTER + INTRA:          -9.733
REMARK INTER:                 -10.306
REMARK INTRA:                   0.573
REMARK UNBOUND:                -0.815
REMARK  Name = cpd130.pdb
REMARK  5 active torsions:
REMARK  status: ('A' for Active; 'I' for Inactive)
REMARK    1  A    between atoms: C_1  and  O_2
REMARK    2  A    between atoms: O_2  and  C_3
REMARK    3  A    between atoms: C_12  and  O_13
REMARK    4  A    between atoms: N_19  and  C_20
REMARK    5  A    between atoms: C_20  and  C_21
REMARK                            x       y       z     vdW  Elec       q    Type
REMARK                         _______ _______ _______ _____ _____    ______ ____
ROOT
ATOM      1  C   UNL     1      35.045 -41.622 -28.170  0.00  0.00    +0.162 A 
ATOM      2  C   UNL     1      35.442 -41.694 -29.507  0.00  0.00    -0.016 A 
ATOM      3  C   UNL     1      35.647 -40.521 -30.265  0.00  0.00    -0.053 A 
ATOM      4  C   UNL     1      35.435 -39.244 -29.719  0.00  0.00    -0.026 A 
ATOM      5  C   UNL     1      34.896 -39.195 -28.441  0.00  0.00    +0.016 A 
ATOM      6  C   UNL     1      34.786 -40.358 -27.664  0.00  0.00    +0.167 A 
ATOM      7  O   UNL     1      34.499 -40.083 -26.332  0.00  0.00    -0.484 OA
ATOM      8  C   UNL     1      33.898 -38.788 -26.466  0.00  0.00    +0.116 C 
ATOM      9  C   UNL     1      33.771 -37.951 -25.201  0.00  0.00    +0.015 C 
ATOM     10  C   UNL     1      32.974 -36.671 -25.548  0.00  0.00    +0.077 C 
ATOM     11  C   UNL     1      32.982 -36.277 -27.010  0.00  0.00    -0.059 C 
ATOM     12  C   UNL     1      33.717 -36.899 -27.956  0.00  0.00    -0.071 C 
ATOM     13  C   UNL     1      34.662 -38.009 -27.567  0.00  0.00    +0.056 C 
ATOM     14  C   UNL     1      36.058 -37.439 -27.206  0.00  0.00    -0.023 C 
ATOM     15  C   UNL     1      36.984 -37.159 -28.419  0.00  0.00    +0.001 C 
ATOM     16  N   UNL     1      36.242 -36.821 -29.646  0.00  0.00    -0.294 N 
ATOM     17  C   UNL     1      35.900 -38.011 -30.465  0.00  0.00    +0.025 C 
ATOM     18  H   UNL     1      35.371 -36.404 -29.317  0.00  0.00    +0.000 HD
ENDROOT
BRANCH   1  20
ATOM     19  C   UNL     1      33.872 -43.612 -27.624  0.00  0.00    +0.079 C 
ATOM     20  O   UNL     1      34.891 -42.674 -27.315  0.00  0.00    -0.491 OA
ENDBRANCH   1  20
BRANCH  10  21
ATOM     21  O   UNL     1      31.604 -36.874 -25.213  0.00  0.00    -0.388 OA
ATOM     22  H   UNL     1      31.058 -36.770 -26.008  0.00  0.00    +0.000 HD
ENDBRANCH  10  21
BRANCH  16  23
ATOM     23  C   UNL     1      36.955 -35.840 -30.481  0.00  0.00    +0.024 C 
BRANCH  23  24
ATOM     24  C   UNL     1      38.385 -36.239 -30.791  0.00  0.00    -0.033 A 
ATOM     25  C   UNL     1      38.965 -35.918 -32.028  0.00  0.00    -0.056 A 
ATOM     26  C   UNL     1      40.276 -36.297 -32.320  0.00  0.00    -0.047 A 
ATOM     27  C   UNL     1      41.013 -37.010 -31.378  0.00  0.00    +0.018 A 
ATOM     28 BR   UNL     1      42.789 -37.526 -31.770  0.00  0.00    -0.050 Br
ATOM     29  C   UNL     1      40.451 -37.347 -30.148  0.00  0.00    -0.047 A 
ATOM     30  C   UNL     1      39.139 -36.965 -29.857  0.00  0.00    -0.056 A 
ENDBRANCH  23  24
ENDBRANCH  16  23
TORSDOF 4
ENDMDL
MODEL 8
REMARK VINA RESULT:    -7.313      2.255      4.535
REMARK INTER + INTRA:          -9.625
REMARK INTER:                  -8.811
REMARK INTRA:                  -0.814
REMARK UNBOUND:                -0.815
REMARK  Name = cpd130.pdb
REMARK  5 active torsions:
REMARK  status: ('A' for Active; 'I' for Inactive)
REMARK    1  A    between atoms: C_1  and  O_2
REMARK    2  A    between atoms: O_2  and  C_3
REMARK    3  A    between atoms: C_12  and  O_13
REMARK    4  A    between atoms: N_19  and  C_20
REMARK    5  A    between atoms: C_20  and  C_21
REMARK                            x       y       z     vdW  Elec       q    Type
REMARK                         _______ _______ _______ _____ _____    ______ ____
ROOT
ATOM      1  C   UNL     1      30.784 -38.226 -29.038  0.00  0.00    +0.162 A 
ATOM      2  C   UNL     1      31.255 -39.498 -28.706  0.00  0.00    -0.016 A 
ATOM      3  C   UNL     1      32.638 -39.781 -28.707  0.00  0.00    -0.053 A 
ATOM      4  C   UNL     1      33.588 -38.809 -29.067  0.00  0.00    -0.026 A 
ATOM      5  C   UNL     1      33.096 -37.601 -29.538  0.00  0.00    +0.016 A 
ATOM      6  C   UNL     1      31.729 -37.297 -29.443  0.00  0.00    +0.167 A 
ATOM      7  O   UNL     1      31.463 -35.956 -29.694  0.00  0.00    -0.484 OA
ATOM      8  C   UNL     1      32.614 -35.613 -30.476  0.00  0.00    +0.116 C 
ATOM      9  C   UNL     1      32.914 -34.131 -30.651  0.00  0.00    +0.015 C 
ATOM     10  C   UNL     1      34.099 -33.992 -31.636  0.00  0.00    +0.077 C 
ATOM     11  C   UNL     1      34.986 -35.213 -31.761  0.00  0.00    -0.059 C 
ATOM     12  C   UNL     1      34.862 -36.319 -30.998  0.00  0.00    -0.071 C 
ATOM     13  C   UNL     1      33.841 -36.357 -29.888  0.00  0.00    +0.056 C 
ATOM     14  C   UNL     1      34.445 -35.813 -28.568  0.00  0.00    -0.023 C 
ATOM     15  C   UNL     1      35.276 -36.842 -27.756  0.00  0.00    +0.001 C 
ATOM     16  N   UNL     1      35.915 -37.864 -28.602  0.00  0.00    -0.294 N 
ATOM     17  C   UNL     1      35.061 -39.058 -28.818  0.00  0.00    +0.025 C 
ATOM     18  H   UNL     1      36.053 -37.407 -29.504  0.00  0.00    +0.000 HD
ENDROOT
BRANCH   1  20
ATOM     19  C   UNL     1      28.614 -38.501 -28.115  0.00  0.00    +0.079 C 
ATOM     20  O   UNL     1      29.485 -37.810 -28.997  0.00  0.00    -0.491 OA
ENDBRANCH   1  20
BRANCH  10  21
ATOM     21  O   UNL     1      33.588 -33.754 -32.945  0.00  0.00    -0.388 OA
ATOM     22  H   UNL     1      32.664 -34.047 -32.989  0.00  0.00    +0.000 HD
ENDBRANCH  10  21
BRANCH  16  23
ATOM     23  C   UNL     1      37.225 -38.286 -28.079  0.00  0.00    +0.024 C 
BRANCH  23  24
ATOM     24  C   UNL     1      38.392 -37.820 -28.929  0.00  0.00    -0.033 A 
ATOM     25  C   UNL     1      38.185 -36.951 -30.013  0.00  0.00    -0.056 A 
ATOM     26  C   UNL     1      39.255 -36.533 -30.805  0.00  0.00    -0.047 A 
ATOM     27  C   UNL     1      40.540 -36.990 -30.523  0.00  0.00    +0.018 A 
ATOM     28 BR   UNL     1      41.992 -36.426 -31.595  0.00  0.00    -0.050 Br
ATOM     29  C   UNL     1      40.764 -37.861 -29.459  0.00  0.00    -0.047 A 
ATOM     30  C   UNL     1      39.691 -38.277 -28.666  0.00  0.00    -0.056 A 
ENDBRANCH  23  24
ENDBRANCH  16  23
TORSDOF 4
ENDMDL
MODEL 9
REMARK VINA RESULT:    -7.301      3.839      7.356
REMARK INTER + INTRA:          -9.610
REMARK INTER:                  -8.782
REMARK INTRA:                  -0.828
REMARK UNBOUND:                -0.815
REMARK  Name = cpd130.pdb
REMARK  5 active torsions:
REMARK  status: ('A' for Active; 'I' for Inactive)
REMARK    1  A    between atoms: C_1  and  O_2
REMARK    2  A    between atoms: O_2  and  C_3
REMARK    3  A    between atoms: C_12  and  O_13
REMARK    4  A    between atoms: N_19  and  C_20
REMARK    5  A    between atoms: C_20  and  C_21
REMARK                            x       y       z     vdW  Elec       q    Type
REMARK                         _______ _______ _______ _____ _____    ______ ____
ROOT
ATOM      1  C   UNL     1      38.724 -35.896 -31.094  0.00  0.00    +0.162 A 
ATOM      2  C   UNL     1      39.334 -36.834 -30.258  0.00  0.00    -0.016 A 
ATOM      3  C   UNL     1      38.600 -37.485 -29.243  0.00  0.00    -0.053 A 
ATOM      4  C   UNL     1      37.243 -37.197 -29.016  0.00  0.00    -0.026 A 
ATOM      5  C   UNL     1      36.694 -36.158 -29.753  0.00  0.00    +0.016 A 
ATOM      6  C   UNL     1      37.402 -35.584 -30.821  0.00  0.00    +0.167 A 
ATOM      7  O   UNL     1      36.601 -34.770 -31.613  0.00  0.00    -0.484 OA
ATOM      8  C   UNL     1      35.569 -34.441 -30.674  0.00  0.00    +0.116 C 
ATOM      9  C   UNL     1      34.280 -33.861 -31.238  0.00  0.00    +0.015 C 
ATOM     10  C   UNL     1      33.375 -33.451 -30.053  0.00  0.00    +0.077 C 
ATOM     11  C   UNL     1      33.667 -34.150 -28.741  0.00  0.00    -0.059 C 
ATOM     12  C   UNL     1      34.559 -35.154 -28.601  0.00  0.00    -0.071 C 
ATOM     13  C   UNL     1      35.277 -35.696 -29.812  0.00  0.00    +0.056 C 
ATOM     14  C   UNL     1      34.462 -36.842 -30.465  0.00  0.00    -0.023 C 
ATOM     15  C   UNL     1      34.648 -38.235 -29.807  0.00  0.00    +0.001 C 
ATOM     16  N   UNL     1      34.965 -38.157 -28.371  0.00  0.00    -0.294 N 
ATOM     17  C   UNL     1      36.423 -38.081 -28.100  0.00  0.00    +0.025 C 
ATOM     18  H   UNL     1      34.540 -37.284 -28.057  0.00  0.00    +0.000 HD
ENDROOT
BRANCH   1  20
ATOM     19  C   UNL     1      40.688 -34.969 -32.052  0.00  0.00    +0.079 C 
ATOM     20  O   UNL     1      39.303 -35.262 -32.154  0.00  0.00    -0.491 OA
ENDBRANCH   1  20
BRANCH  10  21
ATOM     21  O   UNL     1      33.554 -32.061 -29.793  0.00  0.00    -0.388 OA
ATOM     22  H   UNL     1      32.980 -31.546 -30.381  0.00  0.00    +0.000 HD
ENDBRANCH  10  21
BRANCH  16  23
ATOM     23  C   UNL     1      34.381 -39.271 -27.606  0.00  0.00    +0.024 C 
BRANCH  23  24
ATOM     24  C   UNL     1      33.449 -38.817 -26.498  0.00  0.00    -0.033 A 
ATOM     25  C   UNL     1      33.193 -39.645 -25.394  0.00  0.00    -0.056 A 
ATOM     26  C   UNL     1      32.324 -39.235 -24.381  0.00  0.00    -0.047 A 
ATOM     27  C   UNL     1      31.698 -37.994 -24.472  0.00  0.00    +0.018 A 
ATOM     28 BR   UNL     1      30.520 -37.435 -23.103  0.00  0.00    -0.050 Br
ATOM     29  C   UNL     1      31.931 -37.162 -25.566  0.00  0.00    -0.047 A 
ATOM     30  C   UNL     1      32.802 -37.575 -26.577  0.00  0.00    -0.056 A 
ENDBRANCH  23  24
ENDBRANCH  16  23
TORSDOF 4
ENDMDL
MODEL 10
REMARK VINA RESULT:    -7.223      3.650      6.925
REMARK INTER + INTRA:          -9.516
REMARK INTER:                  -8.710
REMARK INTRA:                  -0.806
REMARK UNBOUND:                -0.815
REMARK  Name = cpd130.pdb
REMARK  5 active torsions:
REMARK  status: ('A' for Active; 'I' for Inactive)
REMARK    1  A    between atoms: C_1  and  O_2
REMARK    2  A    between atoms: O_2  and  C_3
REMARK    3  A    between atoms: C_12  and  O_13
REMARK    4  A    between atoms: N_19  and  C_20
REMARK    5  A    between atoms: C_20  and  C_21
REMARK                            x       y       z     vdW  Elec       q    Type
REMARK                         _______ _______ _______ _____ _____    ______ ____
ROOT
ATOM      1  C   UNL     1      38.958 -37.866 -29.547  0.00  0.00    +0.162 A 
ATOM      2  C   UNL     1      39.699 -36.907 -30.241  0.00  0.00    -0.016 A 
ATOM      3  C   UNL     1      39.054 -35.885 -30.972  0.00  0.00    -0.053 A 
ATOM      4  C   UNL     1      37.654 -35.808 -31.052  0.00  0.00    -0.026 A 
ATOM      5  C   UNL     1      36.938 -36.852 -30.484  0.00  0.00    +0.016 A 
ATOM      6  C   UNL     1      37.580 -37.808 -29.681  0.00  0.00    +0.167 A 
ATOM      7  O   UNL     1      36.682 -38.599 -28.974  0.00  0.00    -0.484 OA
ATOM      8  C   UNL     1      35.518 -38.457 -29.798  0.00  0.00    +0.116 C 
ATOM      9  C   UNL     1      34.185 -38.864 -29.187  0.00  0.00    +0.015 C 
ATOM     10  C   UNL     1      33.100 -38.766 -30.286  0.00  0.00    +0.077 C 
ATOM     11  C   UNL     1      33.430 -37.847 -31.444  0.00  0.00    -0.059 C 
ATOM     12  C   UNL     1      34.523 -37.058 -31.495  0.00  0.00    -0.071 C 
ATOM     13  C   UNL     1      35.463 -36.996 -30.315  0.00  0.00    +0.056 C 
ATOM     14  C   UNL     1      35.018 -35.897 -29.317  0.00  0.00    -0.023 C 
ATOM     15  C   UNL     1      35.477 -34.460 -29.680  0.00  0.00    +0.001 C 
ATOM     16  N   UNL     1      35.630 -34.251 -31.129  0.00  0.00    -0.294 N 
ATOM     17  C   UNL     1      36.993 -34.571 -31.623  0.00  0.00    +0.025 C 
ATOM     18  H   UNL     1      34.977 -34.907 -31.557  0.00  0.00    +0.000 HD
ENDROOT
BRANCH   1  20
ATOM     19  C   UNL     1      40.441 -38.468 -27.793  0.00  0.00    +0.079 C 
ATOM     20  O   UNL     1      39.460 -38.850 -28.746  0.00  0.00    -0.491 OA
ENDBRANCH   1  20
BRANCH  10  21
ATOM     21  O   UNL     1      32.908 -40.055 -30.863  0.00  0.00    -0.388 OA
ATOM     22  H   UNL     1      33.743 -40.547 -30.840  0.00  0.00    +0.000 HD
ENDBRANCH  10  21
BRANCH  16  23
ATOM     23  C   UNL     1      35.268 -32.884 -31.541  0.00  0.00    +0.024 C 
BRANCH  23  24
ATOM     24  C   UNL     1      33.782 -32.596 -31.430  0.00  0.00    -0.033 A 
ATOM     25  C   UNL     1      32.844 -33.410 -32.084  0.00  0.00    -0.056 A 
ATOM     26  C   UNL     1      31.479 -33.137 -31.995  0.00  0.00    -0.047 A 
ATOM     27  C   UNL     1      31.042 -32.040 -31.257  0.00  0.00    +0.018 A 
ATOM     28 BR   UNL     1      29.193 -31.667 -31.134  0.00  0.00    -0.050 Br
ATOM     29  C   UNL     1      31.959 -31.213 -30.609  0.00  0.00    -0.047 A 
ATOM     30  C   UNL     1      33.326 -31.489 -30.699  0.00  0.00    -0.056 A 
ENDBRANCH  23  24
ENDBRANCH  16  23
TORSDOF 4
ENDMDL
MODEL 11
REMARK VINA RESULT:    -7.217      2.306      4.245
REMARK INTER + INTRA:          -9.509
REMARK INTER:                  -8.788
REMARK INTRA:                  -0.721
REMARK UNBOUND:                -0.815
REMARK  Name = cpd130.pdb
REMARK  5 active torsions:
REMARK  status: ('A' for Active; 'I' for Inactive)
REMARK    1  A    between atoms: C_1  and  O_2
REMARK    2  A    between atoms: O_2  and  C_3
REMARK    3  A    between atoms: C_12  and  O_13
REMARK    4  A    between atoms: N_19  and  C_20
REMARK    5  A    between atoms: C_20  and  C_21
REMARK                            x       y       z     vdW  Elec       q    Type
REMARK                         _______ _______ _______ _____ _____    ______ ____
ROOT
ATOM      1  C   UNL     1      30.410 -36.204 -31.002  0.00  0.00    +0.162 A 
ATOM      2  C   UNL     1      30.677 -37.563 -31.183  0.00  0.00    -0.016 A 
ATOM      3  C   UNL     1      31.967 -38.085 -30.946  0.00  0.00    -0.053 A 
ATOM      4  C   UNL     1      33.033 -37.261 -30.548  0.00  0.00    -0.026 A 
ATOM      5  C   UNL     1      32.789 -35.896 -30.520  0.00  0.00    +0.016 A 
ATOM      6  C   UNL     1      31.485 -35.397 -30.663  0.00  0.00    +0.167 A 
ATOM      7  O   UNL     1      31.389 -34.052 -30.327  0.00  0.00    -0.484 OA
ATOM      8  C   UNL     1      32.750 -33.646 -30.523  0.00  0.00    +0.116 C 
ATOM      9  C   UNL     1      33.171 -32.320 -29.908  0.00  0.00    +0.015 C 
ATOM     10  C   UNL     1      34.619 -32.015 -30.360  0.00  0.00    +0.077 C 
ATOM     11  C   UNL     1      35.431 -33.218 -30.794  0.00  0.00    -0.059 C 
ATOM     12  C   UNL     1      35.003 -34.495 -30.692  0.00  0.00    -0.071 C 
ATOM     13  C   UNL     1      33.674 -34.794 -30.042  0.00  0.00    +0.056 C 
ATOM     14  C   UNL     1      33.843 -34.988 -28.513  0.00  0.00    -0.023 C 
ATOM     15  C   UNL     1      34.305 -36.405 -28.081  0.00  0.00    +0.001 C 
ATOM     16  N   UNL     1      35.128 -37.079 -29.098  0.00  0.00    -0.294 N 
ATOM     17  C   UNL     1      34.328 -37.877 -30.060  0.00  0.00    +0.025 C 
ATOM     18  H   UNL     1      35.578 -36.322 -29.613  0.00  0.00    +0.000 HD
ENDROOT
BRANCH   1  20
ATOM     19  C   UNL     1      28.743 -35.311 -32.437  0.00  0.00    +0.079 C 
ATOM     20  O   UNL     1      29.195 -35.596 -31.122  0.00  0.00    -0.491 OA
ENDBRANCH   1  20
BRANCH  10  21
ATOM     21  O   UNL     1      34.578 -31.153 -31.494  0.00  0.00    -0.388 OA
ATOM     22  H   UNL     1      33.717 -31.238 -31.934  0.00  0.00    +0.000 HD
ENDBRANCH  10  21
BRANCH  16  23
ATOM     23  C   UNL     1      36.170 -37.932 -28.501  0.00  0.00    +0.024 C 
BRANCH  23  24
ATOM     24  C   UNL     1      37.530 -37.766 -29.153  0.00  0.00    -0.033 A 
ATOM     25  C   UNL     1      38.659 -38.415 -28.629  0.00  0.00    -0.056 A 
ATOM     26  C   UNL     1      39.913 -38.251 -29.219  0.00  0.00    -0.047 A 
ATOM     27  C   UNL     1      40.048 -37.427 -30.334  0.00  0.00    +0.018 A 
ATOM     28 BR   UNL     1      41.745 -37.203 -31.135  0.00  0.00    -0.050 Br
ATOM     29  C   UNL     1      38.940 -36.766 -30.862  0.00  0.00    -0.047 A 
ATOM     30  C   UNL     1      37.686 -36.932 -30.271  0.00  0.00    -0.056 A 
ENDBRANCH  23  24
ENDBRANCH  16  23
TORSDOF 4
ENDMDL
MODEL 12
REMARK VINA RESULT:    -7.121      2.094      3.313
REMARK INTER + INTRA:          -9.393
REMARK INTER:                  -8.548
REMARK INTRA:                  -0.845
REMARK UNBOUND:                -0.815
REMARK  Name = cpd130.pdb
REMARK  5 active torsions:
REMARK  status: ('A' for Active; 'I' for Inactive)
REMARK    1  A    between atoms: C_1  and  O_2
REMARK    2  A    between atoms: O_2  and  C_3
REMARK    3  A    between atoms: C_12  and  O_13
REMARK    4  A    between atoms: N_19  and  C_20
REMARK    5  A    between atoms: C_20  and  C_21
REMARK                            x       y       z     vdW  Elec       q    Type
REMARK                         _______ _______ _______ _____ _____    ______ ____
ROOT
ATOM      1  C   UNL     1      30.229 -31.648 -29.513  0.00  0.00    +0.162 A 
ATOM      2  C   UNL     1      31.162 -30.894 -30.228  0.00  0.00    -0.016 A 
ATOM      3  C   UNL     1      32.440 -31.416 -30.522  0.00  0.00    -0.053 A 
ATOM      4  C   UNL     1      32.833 -32.693 -30.089  0.00  0.00    -0.026 A 
ATOM      5  C   UNL     1      31.952 -33.366 -29.253  0.00  0.00    +0.016 A 
ATOM      6  C   UNL     1      30.650 -32.882 -29.046  0.00  0.00    +0.167 A 
ATOM      7  O   UNL     1      29.829 -33.816 -28.424  0.00  0.00    -0.484 OA
ATOM      8  C   UNL     1      30.817 -34.630 -27.778  0.00  0.00    +0.116 C 
ATOM      9  C   UNL     1      30.370 -35.999 -27.285  0.00  0.00    +0.015 C 
ATOM     10  C   UNL     1      31.542 -36.637 -26.504  0.00  0.00    +0.077 C 
ATOM     11  C   UNL     1      32.917 -36.095 -26.837  0.00  0.00    -0.059 C 
ATOM     12  C   UNL     1      33.160 -35.208 -27.824  0.00  0.00    -0.071 C 
ATOM     13  C   UNL     1      32.037 -34.759 -28.727  0.00  0.00    +0.056 C 
ATOM     14  C   UNL     1      31.902 -35.706 -29.946  0.00  0.00    -0.023 C 
ATOM     15  C   UNL     1      32.878 -35.410 -31.115  0.00  0.00    +0.001 C 
ATOM     16  N   UNL     1      34.145 -34.806 -30.671  0.00  0.00    -0.294 N 
ATOM     17  C   UNL     1      34.100 -33.323 -30.628  0.00  0.00    +0.025 C 
ATOM     18  H   UNL     1      34.276 -35.146 -29.717  0.00  0.00    +0.000 HD
ENDROOT
BRANCH   1  20
ATOM     19  C   UNL     1      28.739 -30.427 -28.126  0.00  0.00    +0.079 C 
ATOM     20  O   UNL     1      28.942 -31.289 -29.236  0.00  0.00    -0.491 OA
ENDBRANCH   1  20
BRANCH  10  21
ATOM     21  O   UNL     1      31.360 -36.389 -25.112  0.00  0.00    -0.388 OA
ATOM     22  H   UNL     1      32.120 -35.893 -24.770  0.00  0.00    +0.000 HD
ENDBRANCH  10  21
BRANCH  16  23
ATOM     23  C   UNL     1      35.291 -35.238 -31.489  0.00  0.00    +0.024 C 
BRANCH  23  24
ATOM     24  C   UNL     1      36.344 -35.993 -30.700  0.00  0.00    -0.033 A 
ATOM     25  C   UNL     1      37.628 -36.195 -31.231  0.00  0.00    -0.056 A 
ATOM     26  C   UNL     1      38.593 -36.902 -30.512  0.00  0.00    -0.047 A 
ATOM     27  C   UNL     1      38.275 -37.420 -29.259  0.00  0.00    +0.018 A 
ATOM     28 BR   UNL     1      39.580 -38.379 -28.282  0.00  0.00    -0.050 Br
ATOM     29  C   UNL     1      37.003 -37.239 -28.720  0.00  0.00    -0.047 A 
ATOM     30  C   UNL     1      36.039 -36.530 -29.440  0.00  0.00    -0.056 A 
ENDBRANCH  23  24
ENDBRANCH  16  23
TORSDOF 4
ENDMDL
MODEL 13
REMARK VINA RESULT:    -7.030     17.615     20.246
REMARK INTER + INTRA:          -9.284
REMARK INTER:                  -8.476
REMARK INTRA:                  -0.808
REMARK UNBOUND:                -0.815
REMARK  Name = cpd130.pdb
REMARK  5 active torsions:
REMARK  status: ('A' for Active; 'I' for Inactive)
REMARK    1  A    between atoms: C_1  and  O_2
REMARK    2  A    between atoms: O_2  and  C_3
REMARK    3  A    between atoms: C_12  and  O_13
REMARK    4  A    between atoms: N_19  and  C_20
REMARK    5  A    between atoms: C_20  and  C_21
REMARK                            x       y       z     vdW  Elec       q    Type
REMARK                         _______ _______ _______ _____ _____    ______ ____
ROOT
ATOM      1  C   UNL     1      46.283 -21.298 -41.232  0.00  0.00    +0.162 A 
ATOM      2  C   UNL     1      45.118 -21.730 -41.869  0.00  0.00    -0.016 A 
ATOM      3  C   UNL     1      43.854 -21.551 -41.266  0.00  0.00    -0.053 A 
ATOM      4  C   UNL     1      43.720 -20.960 -39.999  0.00  0.00    -0.026 A 
ATOM      5  C   UNL     1      44.894 -20.675 -39.316  0.00  0.00    +0.016 A 
ATOM      6  C   UNL     1      46.138 -20.768 -39.959  0.00  0.00    +0.167 A 
ATOM      7  O   UNL     1      47.161 -20.180 -39.226  0.00  0.00    -0.484 OA
ATOM      8  C   UNL     1      46.596 -20.241 -37.910  0.00  0.00    +0.116 C 
ATOM      9  C   UNL     1      47.232 -19.363 -36.842  0.00  0.00    +0.015 C 
ATOM     10  C   UNL     1      46.566 -19.692 -35.486  0.00  0.00    +0.077 C 
ATOM     11  C   UNL     1      45.190 -20.322 -35.573  0.00  0.00    -0.059 C 
ATOM     12  C   UNL     1      44.507 -20.487 -36.726  0.00  0.00    -0.071 C 
ATOM     13  C   UNL     1      45.075 -19.959 -38.020  0.00  0.00    +0.056 C 
ATOM     14  C   UNL     1      44.633 -18.492 -38.255  0.00  0.00    -0.023 C 
ATOM     15  C   UNL     1      43.221 -18.327 -38.878  0.00  0.00    +0.001 C 
ATOM     16  N   UNL     1      42.303 -19.424 -38.528  0.00  0.00    -0.294 N 
ATOM     17  C   UNL     1      42.352 -20.553 -39.491  0.00  0.00    +0.025 C 
ATOM     18  H   UNL     1      42.636 -19.764 -37.626  0.00  0.00    +0.000 HD
ENDROOT
BRANCH   1  20
ATOM     19  C   UNL     1      48.157 -22.620 -41.844  0.00  0.00    +0.079 C 
ATOM     20  O   UNL     1      47.547 -21.342 -41.742  0.00  0.00    -0.491 OA
ENDBRANCH   1  20
BRANCH  10  21
ATOM     21  O   UNL     1      47.375 -20.638 -34.790  0.00  0.00    -0.388 OA
ATOM     22  H   UNL     1      47.355 -21.486 -35.258  0.00  0.00    +0.000 HD
ENDBRANCH  10  21
BRANCH  16  23
ATOM     23  C   UNL     1      40.912 -18.966 -38.380  0.00  0.00    +0.024 C 
BRANCH  23  24
ATOM     24  C   UNL     1      40.205 -19.570 -37.181  0.00  0.00    -0.033 A 
ATOM     25  C   UNL     1      40.939 -20.111 -36.114  0.00  0.00    -0.056 A 
ATOM     26  C   UNL     1      40.290 -20.680 -35.018  0.00  0.00    -0.047 A 
ATOM     27  C   UNL     1      38.898 -20.721 -34.987  0.00  0.00    +0.018 A 
ATOM     28 BR   UNL     1      38.015 -21.491 -33.503  0.00  0.00    -0.050 Br
ATOM     29  C   UNL     1      38.151 -20.198 -36.041  0.00  0.00    -0.047 A 
ATOM     30  C   UNL     1      38.804 -19.628 -37.137  0.00  0.00    -0.056 A 
ENDBRANCH  23  24
ENDBRANCH  16  23
TORSDOF 4
ENDMDL
MODEL 14
REMARK VINA RESULT:    -6.827      3.508      6.973
REMARK INTER + INTRA:          -9.039
REMARK INTER:                  -8.889
REMARK INTRA:                  -0.150
REMARK UNBOUND:                -0.815
REMARK  Name = cpd130.pdb
REMARK  5 active torsions:
REMARK  status: ('A' for Active; 'I' for Inactive)
REMARK    1  A    between atoms: C_1  and  O_2
REMARK    2  A    between atoms: O_2  and  C_3
REMARK    3  A    between atoms: C_12  and  O_13
REMARK    4  A    between atoms: N_19  and  C_20
REMARK    5  A    between atoms: C_20  and  C_21
REMARK                            x       y       z     vdW  Elec       q    Type
REMARK                         _______ _______ _______ _____ _____    ______ ____
ROOT
ATOM      1  C   UNL     1      38.759 -36.287 -31.431  0.00  0.00    +0.162 A 
ATOM      2  C   UNL     1      39.354 -37.074 -30.443  0.00  0.00    -0.016 A 
ATOM      3  C   UNL     1      38.628 -37.471 -29.299  0.00  0.00    -0.053 A 
ATOM      4  C   UNL     1      37.297 -37.071 -29.096  0.00  0.00    -0.026 A 
ATOM      5  C   UNL     1      36.771 -36.168 -30.009  0.00  0.00    +0.016 A 
ATOM      6  C   UNL     1      37.464 -35.855 -31.189  0.00  0.00    +0.167 A 
ATOM      7  O   UNL     1      36.674 -35.170 -32.104  0.00  0.00    -0.484 OA
ATOM      8  C   UNL     1      35.696 -34.606 -31.220  0.00  0.00    +0.116 C 
ATOM      9  C   UNL     1      34.416 -34.079 -31.852  0.00  0.00    +0.015 C 
ATOM     10  C   UNL     1      33.578 -33.395 -30.747  0.00  0.00    +0.077 C 
ATOM     11  C   UNL     1      33.885 -33.837 -29.331  0.00  0.00    -0.059 C 
ATOM     12  C   UNL     1      34.732 -34.841 -29.020  0.00  0.00    -0.071 C 
ATOM     13  C   UNL     1      35.377 -35.650 -30.119  0.00  0.00    +0.056 C 
ATOM     14  C   UNL     1      34.483 -36.855 -30.509  0.00  0.00    -0.023 C 
ATOM     15  C   UNL     1      34.626 -38.099 -29.592  0.00  0.00    +0.001 C 
ATOM     16  N   UNL     1      35.001 -37.758 -28.210  0.00  0.00    -0.294 N 
ATOM     17  C   UNL     1      36.470 -37.711 -28.000  0.00  0.00    +0.025 C 
ATOM     18  H   UNL     1      34.631 -36.818 -28.064  0.00  0.00    +0.000 HD
ENDROOT
BRANCH   1  20
ATOM     19  C   UNL     1      40.665 -36.317 -32.846  0.00  0.00    +0.079 C 
ATOM     20  O   UNL     1      39.326 -35.907 -32.612  0.00  0.00    -0.491 OA
ENDBRANCH   1  20
BRANCH  10  21
ATOM     21  O   UNL     1      33.834 -31.993 -30.773  0.00  0.00    -0.388 OA
ATOM     22  H   UNL     1      33.038 -31.514 -30.494  0.00  0.00    +0.000 HD
ENDBRANCH  10  21
BRANCH  16  23
ATOM     23  C   UNL     1      34.394 -38.666 -27.223  0.00  0.00    +0.024 C 
BRANCH  23  24
ATOM     24  C   UNL     1      33.922 -39.977 -27.822  0.00  0.00    -0.033 A 
ATOM     25  C   UNL     1      34.836 -41.005 -28.104  0.00  0.00    -0.056 A 
ATOM     26  C   UNL     1      34.405 -42.207 -28.669  0.00  0.00    -0.047 A 
ATOM     27  C   UNL     1      33.056 -42.384 -28.965  0.00  0.00    +0.018 A 
ATOM     28 BR   UNL     1      32.468 -44.009 -29.731  0.00  0.00    -0.050 Br
ATOM     29  C   UNL     1      32.135 -41.370 -28.703  0.00  0.00    -0.047 A 
ATOM     30  C   UNL     1      32.568 -40.169 -28.136  0.00  0.00    -0.056 A 
ENDBRANCH  23  24
ENDBRANCH  16  23
TORSDOF 4
ENDMDL
MODEL 15
REMARK VINA RESULT:    -6.792     34.461     36.773
REMARK INTER + INTRA:          -8.997
REMARK INTER:                  -8.249
REMARK INTRA:                  -0.747
REMARK UNBOUND:                -0.815
REMARK  Name = cpd130.pdb
REMARK  5 active torsions:
REMARK  status: ('A' for Active; 'I' for Inactive)
REMARK    1  A    between atoms: C_1  and  O_2
REMARK    2  A    between atoms: O_2  and  C_3
REMARK    3  A    between atoms: C_12  and  O_13
REMARK    4  A    between atoms: N_19  and  C_20
REMARK    5  A    between atoms: C_20  and  C_21
REMARK                            x       y       z     vdW  Elec       q    Type
REMARK                         _______ _______ _______ _____ _____    ______ ____
ROOT
ATOM      1  C   UNL     1      68.021 -15.283 -30.646  0.00  0.00    +0.162 A 
ATOM      2  C   UNL     1      67.370 -16.225 -31.445  0.00  0.00    -0.016 A 
ATOM      3  C   UNL     1      65.960 -16.288 -31.487  0.00  0.00    -0.053 A 
ATOM      4  C   UNL     1      65.162 -15.430 -30.712  0.00  0.00    -0.026 A 
ATOM      5  C   UNL     1      65.823 -14.605 -29.813  0.00  0.00    +0.016 A 
ATOM      6  C   UNL     1      67.221 -14.483 -29.847  0.00  0.00    +0.167 A 
ATOM      7  O   UNL     1      67.680 -13.417 -29.082  0.00  0.00    -0.484 OA
ATOM      8  C   UNL     1      66.584 -13.271 -28.169  0.00  0.00    +0.116 C 
ATOM      9  C   UNL     1      66.506 -11.968 -27.386  0.00  0.00    +0.015 C 
ATOM     10  C   UNL     1      65.345 -12.084 -26.371  0.00  0.00    +0.077 C 
ATOM     11  C   UNL     1      64.285 -13.111 -26.711  0.00  0.00    -0.059 C 
ATOM     12  C   UNL     1      64.251 -13.809 -27.866  0.00  0.00    -0.071 C 
ATOM     13  C   UNL     1      65.267 -13.526 -28.946  0.00  0.00    +0.056 C 
ATOM     14  C   UNL     1      64.763 -12.407 -29.893  0.00  0.00    -0.023 C 
ATOM     15  C   UNL     1      63.797 -12.883 -31.011  0.00  0.00    +0.001 C 
ATOM     16  N   UNL     1      63.005 -14.063 -30.626  0.00  0.00    -0.294 N 
ATOM     17  C   UNL     1      63.671 -15.346 -30.964  0.00  0.00    +0.025 C 
ATOM     18  H   UNL     1      62.928 -14.005 -29.610  0.00  0.00    +0.000 HD
ENDROOT
BRANCH   1  20
ATOM     19  C   UNL     1      70.096 -15.847 -29.639  0.00  0.00    +0.079 C 
ATOM     20  O   UNL     1      69.368 -15.073 -30.580  0.00  0.00    -0.491 OA
ENDBRANCH   1  20
BRANCH  10  21
ATOM     21  O   UNL     1      65.872 -12.482 -25.108  0.00  0.00    -0.388 OA
ATOM     22  H   UNL     1      65.739 -11.770 -24.463  0.00  0.00    +0.000 HD
ENDBRANCH  10  21
BRANCH  16  23
ATOM     23  C   UNL     1      61.652 -14.045 -31.207  0.00  0.00    +0.024 C 
BRANCH  23  24
ATOM     24  C   UNL     1      60.832 -12.840 -30.786  0.00  0.00    -0.033 A 
ATOM     25  C   UNL     1      60.618 -12.560 -29.427  0.00  0.00    -0.056 A 
ATOM     26  C   UNL     1      59.851 -11.460 -29.038  0.00  0.00    -0.047 A 
ATOM     27  C   UNL     1      59.286 -10.637 -30.009  0.00  0.00    +0.018 A 
ATOM     28 BR   UNL     1      58.247  -9.146 -29.486  0.00  0.00    -0.050 Br
ATOM     29  C   UNL     1      59.479 -10.905 -31.363  0.00  0.00    -0.047 A 
ATOM     30  C   UNL     1      60.247 -12.006 -31.750  0.00  0.00    -0.056 A 
ENDBRANCH  23  24
ENDBRANCH  16  23
TORSDOF 4
ENDMDL
MODEL 16
REMARK VINA RESULT:    -6.693      4.582      7.180
REMARK INTER + INTRA:          -8.877
REMARK INTER:                  -8.204
REMARK INTRA:                  -0.673
REMARK UNBOUND:                -0.815
REMARK  Name = cpd130.pdb
REMARK  5 active torsions:
REMARK  status: ('A' for Active; 'I' for Inactive)
REMARK    1  A    between atoms: C_1  and  O_2
REMARK    2  A    between atoms: O_2  and  C_3
REMARK    3  A    between atoms: C_12  and  O_13
REMARK    4  A    between atoms: N_19  and  C_20
REMARK    5  A    between atoms: C_20  and  C_21
REMARK                            x       y       z     vdW  Elec       q    Type
REMARK                         _______ _______ _______ _____ _____    ______ ____
ROOT
ATOM      1  C   UNL     1      32.583 -43.799 -28.406  0.00  0.00    +0.162 A 
ATOM      2  C   UNL     1      33.302 -43.726 -27.210  0.00  0.00    -0.016 A 
ATOM      3  C   UNL     1      34.319 -42.764 -27.035  0.00  0.00    -0.053 A 
ATOM      4  C   UNL     1      34.668 -41.865 -28.058  0.00  0.00    -0.026 A 
ATOM      5  C   UNL     1      34.050 -42.050 -29.287  0.00  0.00    +0.016 A 
ATOM      6  C   UNL     1      32.976 -42.943 -29.423  0.00  0.00    +0.167 A 
ATOM      7  O   UNL     1      32.306 -42.790 -30.631  0.00  0.00    -0.484 OA
ATOM      8  C   UNL     1      33.341 -42.186 -31.418  0.00  0.00    +0.116 C 
ATOM      9  C   UNL     1      32.918 -41.507 -32.712  0.00  0.00    +0.015 C 
ATOM     10  C   UNL     1      34.194 -41.057 -33.461  0.00  0.00    +0.077 C 
ATOM     11  C   UNL     1      35.427 -40.884 -32.598  0.00  0.00    -0.059 C 
ATOM     12  C   UNL     1      35.427 -40.984 -31.252  0.00  0.00    -0.071 C 
ATOM     13  C   UNL     1      34.130 -41.205 -30.514  0.00  0.00    +0.056 C 
ATOM     14  C   UNL     1      33.459 -39.851 -30.167  0.00  0.00    -0.023 C 
ATOM     15  C   UNL     1      34.001 -39.162 -28.886  0.00  0.00    +0.001 C 
ATOM     16  N   UNL     1      35.411 -39.484 -28.609  0.00  0.00    -0.294 N 
ATOM     17  C   UNL     1      35.576 -40.691 -27.761  0.00  0.00    +0.025 C 
ATOM     18  H   UNL     1      35.817 -39.683 -29.524  0.00  0.00    +0.000 HD
ENDROOT
BRANCH   1  20
ATOM     19  C   UNL     1      31.785 -46.023 -28.633  0.00  0.00    +0.079 C 
ATOM     20  O   UNL     1      31.531 -44.627 -28.666  0.00  0.00    -0.491 OA
ENDBRANCH   1  20
BRANCH  10  21
ATOM     21  O   UNL     1      34.539 -42.049 -34.426  0.00  0.00    -0.388 OA
ATOM     22  H   UNL     1      35.163 -41.673 -35.066  0.00  0.00    +0.000 HD
ENDBRANCH  10  21
BRANCH  16  23
ATOM     23  C   UNL     1      36.136 -38.355 -28.003  0.00  0.00    +0.024 C 
BRANCH  23  24
ATOM     24  C   UNL     1      37.408 -37.989 -28.743  0.00  0.00    -0.033 A 
ATOM     25  C   UNL     1      38.657 -38.442 -28.287  0.00  0.00    -0.056 A 
ATOM     26  C   UNL     1      39.830 -38.094 -28.959  0.00  0.00    -0.047 A 
ATOM     27  C   UNL     1      39.761 -37.282 -30.088  0.00  0.00    +0.018 A 
ATOM     28 BR   UNL     1      41.348 -36.808 -31.000  0.00  0.00    -0.050 Br
ATOM     29  C   UNL     1      38.532 -36.813 -30.549  0.00  0.00    -0.047 A 
ATOM     30  C   UNL     1      37.360 -37.164 -29.876  0.00  0.00    -0.056 A 
ENDBRANCH  23  24
ENDBRANCH  16  23
TORSDOF 4
ENDMDL
MODEL 17
REMARK VINA RESULT:    -6.661      3.900      6.887
REMARK INTER + INTRA:          -8.839
REMARK INTER:                  -8.036
REMARK INTRA:                  -0.803
REMARK UNBOUND:                -0.815
REMARK  Name = cpd130.pdb
REMARK  5 active torsions:
REMARK  status: ('A' for Active; 'I' for Inactive)
REMARK    1  A    between atoms: C_1  and  O_2
REMARK    2  A    between atoms: O_2  and  C_3
REMARK    3  A    between atoms: C_12  and  O_13
REMARK    4  A    between atoms: N_19  and  C_20
REMARK    5  A    between atoms: C_20  and  C_21
REMARK                            x       y       z     vdW  Elec       q    Type
REMARK                         _______ _______ _______ _____ _____    ______ ____
ROOT
ATOM      1  C   UNL     1      35.064 -41.774 -28.054  0.00  0.00    +0.162 A 
ATOM      2  C   UNL     1      35.353 -41.697 -29.418  0.00  0.00    -0.016 A 
ATOM      3  C   UNL     1      35.335 -40.456 -30.092  0.00  0.00    -0.053 A 
ATOM      4  C   UNL     1      35.002 -39.263 -29.429  0.00  0.00    -0.026 A 
ATOM      5  C   UNL     1      34.572 -39.378 -28.115  0.00  0.00    +0.016 A 
ATOM      6  C   UNL     1      34.684 -40.598 -27.428  0.00  0.00    +0.167 A 
ATOM      7  O   UNL     1      34.478 -40.459 -26.061  0.00  0.00    -0.484 OA
ATOM      8  C   UNL     1      33.701 -39.254 -26.044  0.00  0.00    +0.116 C 
ATOM      9  C   UNL     1      33.572 -38.534 -24.709  0.00  0.00    +0.015 C 
ATOM     10  C   UNL     1      32.586 -37.356 -24.890  0.00  0.00    +0.077 C 
ATOM     11  C   UNL     1      32.416 -36.863 -26.313  0.00  0.00    -0.059 C 
ATOM     12  C   UNL     1      33.145 -37.308 -27.358  0.00  0.00    -0.071 C 
ATOM     13  C   UNL     1      34.258 -38.301 -27.132  0.00  0.00    +0.056 C 
ATOM     14  C   UNL     1      35.592 -37.569 -26.831  0.00  0.00    -0.023 C 
ATOM     15  C   UNL     1      36.365 -37.079 -28.084  0.00  0.00    +0.001 C 
ATOM     16  N   UNL     1      35.484 -36.763 -29.220  0.00  0.00    -0.294 N 
ATOM     17  C   UNL     1      35.234 -37.928 -30.105  0.00  0.00    +0.025 C 
ATOM     18  H   UNL     1      34.596 -36.494 -28.795  0.00  0.00    +0.000 HD
ENDROOT
BRANCH   1  20
ATOM     19  C   UNL     1      34.172 -43.914 -27.541  0.00  0.00    +0.079 C 
ATOM     20  O   UNL     1      35.125 -42.895 -27.278  0.00  0.00    -0.491 OA
ENDBRANCH   1  20
BRANCH  10  21
ATOM     21  O   UNL     1      31.288 -37.770 -24.472  0.00  0.00    -0.388 OA
ATOM     22  H   UNL     1      30.630 -37.127 -24.777  0.00  0.00    +0.000 HD
ENDBRANCH  10  21
BRANCH  16  23
ATOM     23  C   UNL     1      35.986 -35.635 -30.023  0.00  0.00    +0.024 C 
BRANCH  23  24
ATOM     24  C   UNL     1      35.002 -34.485 -30.126  0.00  0.00    -0.033 A 
ATOM     25  C   UNL     1      35.423 -33.221 -30.570  0.00  0.00    -0.056 A 
ATOM     26  C   UNL     1      34.522 -32.158 -30.651  0.00  0.00    -0.047 A 
ATOM     27  C   UNL     1      33.194 -32.350 -30.279  0.00  0.00    +0.018 A 
ATOM     28 BR   UNL     1      31.972 -30.912 -30.387  0.00  0.00    -0.050 Br
ATOM     29  C   UNL     1      32.760 -33.595 -29.826  0.00  0.00    -0.047 A 
ATOM     30  C   UNL     1      33.663 -34.658 -29.746  0.00  0.00    -0.056 A 
ENDBRANCH  23  24
ENDBRANCH  16  23
TORSDOF 4
ENDMDL
MODEL 18
REMARK VINA RESULT:    -6.419     21.717     23.815
REMARK INTER + INTRA:          -8.547
REMARK INTER:                  -7.825
REMARK INTRA:                  -0.722
REMARK UNBOUND:                -0.815
REMARK  Name = cpd130.pdb
REMARK  5 active torsions:
REMARK  status: ('A' for Active; 'I' for Inactive)
REMARK    1  A    between atoms: C_1  and  O_2
REMARK    2  A    between atoms: O_2  and  C_3
REMARK    3  A    between atoms: C_12  and  O_13
REMARK    4  A    between atoms: N_19  and  C_20
REMARK    5  A    between atoms: C_20  and  C_21
REMARK                            x       y       z     vdW  Elec       q    Type
REMARK                         _______ _______ _______ _____ _____    ______ ____
ROOT
ATOM      1  C   UNL     1      46.227 -19.089 -35.960  0.00  0.00    +0.162 A 
ATOM      2  C   UNL     1      46.806 -17.906 -35.498  0.00  0.00    -0.016 A 
ATOM      3  C   UNL     1      47.180 -16.883 -36.397  0.00  0.00    -0.053 A 
ATOM      4  C   UNL     1      47.010 -17.024 -37.784  0.00  0.00    -0.026 A 
ATOM      5  C   UNL     1      46.575 -18.262 -38.237  0.00  0.00    +0.016 A 
ATOM      6  C   UNL     1      46.118 -19.235 -37.334  0.00  0.00    +0.167 A 
ATOM      7  O   UNL     1      45.463 -20.283 -37.969  0.00  0.00    -0.484 OA
ATOM      8  C   UNL     1      46.035 -20.180 -39.280  0.00  0.00    +0.116 C 
ATOM      9  C   UNL     1      45.318 -20.912 -40.406  0.00  0.00    +0.015 C 
ATOM     10  C   UNL     1      46.176 -20.785 -41.687  0.00  0.00    +0.077 C 
ATOM     11  C   UNL     1      47.143 -19.620 -41.708  0.00  0.00    -0.059 C 
ATOM     12  C   UNL     1      47.198 -18.666 -40.755  0.00  0.00    -0.071 C 
ATOM     13  C   UNL     1      46.204 -18.677 -39.620  0.00  0.00    +0.056 C 
ATOM     14  C   UNL     1      44.930 -17.879 -39.999  0.00  0.00    -0.023 C 
ATOM     15  C   UNL     1      45.039 -16.343 -39.806  0.00  0.00    +0.001 C 
ATOM     16  N   UNL     1      46.413 -15.838 -39.966  0.00  0.00    -0.294 N 
ATOM     17  C   UNL     1      47.181 -15.827 -38.696  0.00  0.00    +0.025 C 
ATOM     18  H   UNL     1      46.862 -16.498 -40.601  0.00  0.00    +0.000 HD
ENDROOT
BRANCH   1  20
ATOM     19  C   UNL     1      44.502 -19.911 -34.551  0.00  0.00    +0.079 C 
ATOM     20  O   UNL     1      45.754 -20.112 -35.191  0.00  0.00    -0.491 OA
ENDBRANCH   1  20
BRANCH  10  21
ATOM     21  O   UNL     1      46.982 -21.954 -41.821  0.00  0.00    -0.388 OA
ATOM     22  H   UNL     1      47.139 -22.131 -42.762  0.00  0.00    +0.000 HD
ENDBRANCH  10  21
BRANCH  16  23
ATOM     23  C   UNL     1      46.450 -14.496 -40.573  0.00  0.00    +0.024 C 
BRANCH  23  24
ATOM     24  C   UNL     1      47.405 -14.393 -41.747  0.00  0.00    -0.033 A 
ATOM     25  C   UNL     1      47.300 -13.336 -42.665  0.00  0.00    -0.056 A 
ATOM     26  C   UNL     1      48.169 -13.248 -43.754  0.00  0.00    -0.047 A 
ATOM     27  C   UNL     1      49.144 -14.225 -43.937  0.00  0.00    +0.018 A 
ATOM     28 BR   UNL     1      50.322 -14.110 -45.411  0.00  0.00    -0.050 Br
ATOM     29  C   UNL     1      49.257 -15.289 -43.043  0.00  0.00    -0.047 A 
ATOM     30  C   UNL     1      48.388 -15.374 -41.953  0.00  0.00    -0.056 A 
ENDBRANCH  23  24
ENDBRANCH  16  23
TORSDOF 4
ENDMDL
MODEL 19
REMARK VINA RESULT:    -6.416     16.025     18.053
REMARK INTER + INTRA:          -8.544
REMARK INTER:                  -8.108
REMARK INTRA:                  -0.436
REMARK UNBOUND:                -0.815
REMARK  Name = cpd130.pdb
REMARK  5 active torsions:
REMARK  status: ('A' for Active; 'I' for Inactive)
REMARK    1  A    between atoms: C_1  and  O_2
REMARK    2  A    between atoms: O_2  and  C_3
REMARK    3  A    between atoms: C_12  and  O_13
REMARK    4  A    between atoms: N_19  and  C_20
REMARK    5  A    between atoms: C_20  and  C_21
REMARK                            x       y       z     vdW  Elec       q    Type
REMARK                         _______ _______ _______ _____ _____    ______ ____
ROOT
ATOM      1  C   UNL     1      40.174 -22.596 -32.990  0.00  0.00    +0.162 A 
ATOM      2  C   UNL     1      39.240 -23.111 -33.891  0.00  0.00    -0.016 A 
ATOM      3  C   UNL     1      39.152 -22.609 -35.208  0.00  0.00    -0.053 A 
ATOM      4  C   UNL     1      39.975 -21.561 -35.653  0.00  0.00    -0.026 A 
ATOM      5  C   UNL     1      40.790 -20.961 -34.704  0.00  0.00    +0.016 A 
ATOM      6  C   UNL     1      40.940 -21.526 -33.428  0.00  0.00    +0.167 A 
ATOM      7  O   UNL     1      41.995 -20.966 -32.718  0.00  0.00    -0.484 OA
ATOM      8  C   UNL     1      42.097 -19.697 -33.379  0.00  0.00    +0.116 C 
ATOM      9  C   UNL     1      43.379 -18.906 -33.160  0.00  0.00    +0.015 C 
ATOM     10  C   UNL     1      43.215 -17.526 -33.840  0.00  0.00    +0.077 C 
ATOM     11  C   UNL     1      42.176 -17.462 -34.941  0.00  0.00    -0.059 C 
ATOM     12  C   UNL     1      41.507 -18.536 -35.411  0.00  0.00    -0.071 C 
ATOM     13  C   UNL     1      41.836 -19.914 -34.892  0.00  0.00    +0.056 C 
ATOM     14  C   UNL     1      42.968 -20.561 -35.730  0.00  0.00    -0.023 C 
ATOM     15  C   UNL     1      42.502 -21.235 -37.048  0.00  0.00    +0.001 C 
ATOM     16  N   UNL     1      41.298 -20.611 -37.622  0.00  0.00    -0.294 N 
ATOM     17  C   UNL     1      40.037 -21.217 -37.127  0.00  0.00    +0.025 C 
ATOM     18  H   UNL     1      41.329 -19.642 -37.302  0.00  0.00    +0.000 HD
ENDROOT
BRANCH   1  20
ATOM     19  C   UNL     1      41.266 -24.170 -31.588  0.00  0.00    +0.079 C 
ATOM     20  O   UNL     1      40.409 -23.046 -31.724  0.00  0.00    -0.491 OA
ENDBRANCH   1  20
BRANCH  10  21
ATOM     21  O   UNL     1      42.795 -16.576 -32.863  0.00  0.00    -0.388 OA
ATOM     22  H   UNL     1      43.438 -16.554 -32.137  0.00  0.00    +0.000 HD
ENDBRANCH  10  21
BRANCH  16  23
ATOM     23  C   UNL     1      41.305 -20.626 -39.094  0.00  0.00    +0.024 C 
BRANCH  23  24
ATOM     24  C   UNL     1      42.679 -20.388 -39.692  0.00  0.00    -0.033 A 
ATOM     25  C   UNL     1      43.374 -21.431 -40.325  0.00  0.00    -0.056 A 
ATOM     26  C   UNL     1      44.644 -21.217 -40.862  0.00  0.00    -0.047 A 
ATOM     27  C   UNL     1      45.232 -19.959 -40.761  0.00  0.00    +0.018 A 
ATOM     28 BR   UNL     1      46.953 -19.665 -41.487  0.00  0.00    -0.050 Br
ATOM     29  C   UNL     1      44.562 -18.914 -40.127  0.00  0.00    -0.047 A 
ATOM     30  C   UNL     1      43.290 -19.130 -39.591  0.00  0.00    -0.056 A 
ENDBRANCH  23  24
ENDBRANCH  16  23
TORSDOF 4
ENDMDL
MODEL 20
REMARK VINA RESULT:    -6.363     17.361     19.356
REMARK INTER + INTRA:          -8.480
REMARK INTER:                  -7.929
REMARK INTRA:                  -0.550
REMARK UNBOUND:                -0.815
REMARK  Name = cpd130.pdb
REMARK  5 active torsions:
REMARK  status: ('A' for Active; 'I' for Inactive)
REMARK    1  A    between atoms: C_1  and  O_2
REMARK    2  A    between atoms: O_2  and  C_3
REMARK    3  A    between atoms: C_12  and  O_13
REMARK    4  A    between atoms: N_19  and  C_20
REMARK    5  A    between atoms: C_20  and  C_21
REMARK                            x       y       z     vdW  Elec       q    Type
REMARK                         _______ _______ _______ _____ _____    ______ ____
ROOT
ATOM      1  C   UNL     1      43.801 -18.998 -34.329  0.00  0.00    +0.162 A 
ATOM      2  C   UNL     1      45.158 -18.895 -34.642  0.00  0.00    -0.016 A 
ATOM      3  C   UNL     1      45.623 -19.166 -35.947  0.00  0.00    -0.053 A 
ATOM      4  C   UNL     1      44.750 -19.574 -36.970  0.00  0.00    -0.026 A 
ATOM      5  C   UNL     1      43.433 -19.818 -36.605  0.00  0.00    +0.016 A 
ATOM      6  C   UNL     1      42.962 -19.455 -35.333  0.00  0.00    +0.167 A 
ATOM      7  O   UNL     1      41.577 -19.507 -35.244  0.00  0.00    -0.484 OA
ATOM      8  C   UNL     1      41.290 -20.433 -36.301  0.00  0.00    +0.116 C 
ATOM      9  C   UNL     1      39.853 -20.493 -36.797  0.00  0.00    +0.015 C 
ATOM     10  C   UNL     1      39.744 -21.646 -37.823  0.00  0.00    +0.077 C 
ATOM     11  C   UNL     1      41.046 -22.057 -38.479  0.00  0.00    -0.059 C 
ATOM     12  C   UNL     1      42.218 -21.410 -38.303  0.00  0.00    -0.071 C 
ATOM     13  C   UNL     1      42.266 -20.151 -37.472  0.00  0.00    +0.056 C 
ATOM     14  C   UNL     1      41.991 -18.904 -38.350  0.00  0.00    -0.023 C 
ATOM     15  C   UNL     1      43.223 -18.366 -39.126  0.00  0.00    +0.001 C 
ATOM     16  N   UNL     1      44.199 -19.417 -39.459  0.00  0.00    -0.294 N 
ATOM     17  C   UNL     1      45.227 -19.613 -38.406  0.00  0.00    +0.025 C 
ATOM     18  H   UNL     1      43.648 -20.273 -39.526  0.00  0.00    +0.000 HD
ENDROOT
BRANCH   1  20
ATOM     19  C   UNL     1      43.216 -17.320 -32.755  0.00  0.00    +0.079 C 
ATOM     20  O   UNL     1      43.222 -18.689 -33.133  0.00  0.00    -0.491 OA
ENDBRANCH   1  20
BRANCH  10  21
ATOM     21  O   UNL     1      39.266 -22.813 -37.159  0.00  0.00    -0.388 OA
ATOM     22  H   UNL     1      39.937 -23.126 -36.532  0.00  0.00    +0.000 HD
ENDBRANCH  10  21
BRANCH  16  23
ATOM     23  C   UNL     1      44.862 -19.177 -40.752  0.00  0.00    +0.024 C 
BRANCH  23  24
ATOM     24  C   UNL     1      45.701 -20.350 -41.225  0.00  0.00    -0.033 A 
ATOM     25  C   UNL     1      47.101 -20.256 -41.269  0.00  0.00    -0.056 A 
ATOM     26  C   UNL     1      47.873 -21.329 -41.717  0.00  0.00    -0.047 A 
ATOM     27  C   UNL     1      47.247 -22.501 -42.135  0.00  0.00    +0.018 A 
ATOM     28 BR   UNL     1      48.289 -23.956 -42.744  0.00  0.00    -0.050 Br
ATOM     29  C   UNL     1      45.857 -22.609 -42.109  0.00  0.00    -0.047 A 
ATOM     30  C   UNL     1      45.087 -21.534 -41.659  0.00  0.00    -0.056 A 
ENDBRANCH  23  24
ENDBRANCH  16  23
TORSDOF 4
ENDMDL
