MODEL 1
REMARK VINA RESULT:    -7.819      0.000      0.000
REMARK INTER + INTRA:         -18.414
REMARK INTER:                 -12.847
REMARK INTRA:                  -5.567
REMARK UNBOUND:                -5.567
REMARK  Name = cpd46.pdb
REMARK  13 active torsions:
REMARK  status: ('A' for Active; 'I' for Inactive)
REMARK    1  A    between atoms: C_1  and  C_2
REMARK    2  A    between atoms: C_6  and  N_7
REMARK    3  A    between atoms: N_7  and  C_8
REMARK    4  A    between atoms: C_13  and  C_14
REMARK    5  A    between atoms: N_16  and  C_17
REMARK    6  A    between atoms: C_17  and  C_18
REMARK    7  A    between atoms: C_18  and  C_19
REMARK    8  A    between atoms: N_21  and  C_22
REMARK    9  A    between atoms: C_22  and  C_23
REMARK   10  A    between atoms: C_23  and  C_24
REMARK   11  A    between atoms: C_24  and  N_25
REMARK   12  A    between atoms: N_25  and  C_26
REMARK   13  A    between atoms: C_41  and  C_42
REMARK                            x       y       z     vdW  Elec       q    Type
REMARK                         _______ _______ _______ _____ _____    ______ ____
ROOT
ATOM      1  C   UNL A   1      31.233 -34.060 -30.058  0.00  0.00    +0.215 C 
ATOM      2  O   UNL A   1      31.124 -33.748 -28.878  0.00  0.00    -0.276 OA
ATOM      3  N   UNL A   1      32.197 -33.538 -30.894  0.00  0.00    -0.315 N 
ATOM      4  H   UNL A   1      32.302 -33.923 -31.794  0.00  0.00    +0.000 HD
ENDROOT
BRANCH   1   5
ATOM      5  C   UNL A   1      30.327 -35.051 -30.755  0.00  0.00    +0.039 C 
BRANCH   5   6
ATOM      6  C   UNL A   1      30.464 -34.970 -32.269  0.00  0.00    +0.020 C 
BRANCH   6   9
ATOM      7  C   UNL A   1      32.085 -36.692 -32.972  0.00  0.00    +0.246 C 
ATOM      8  O   UNL A   1      33.050 -36.020 -32.624  0.00  0.00    -0.270 OA
ATOM      9  N   UNL A   1      30.776 -36.270 -32.840  0.00  0.00    -0.311 N 
ATOM     10  H   UNL A   1      30.045 -36.858 -33.137  0.00  0.00    +0.000 HD
BRANCH   7  16
ATOM     11  C   UNL A   1      33.209 -38.939 -33.016  0.00  0.00    +0.044 A 
ATOM     12  C   UNL A   1      33.342 -40.200 -33.614  0.00  0.00    -0.040 A 
ATOM     13  C   UNL A   1      32.593 -40.554 -34.741  0.00  0.00    -0.060 A 
ATOM     14  C   UNL A   1      31.692 -39.649 -35.294  0.00  0.00    -0.061 A 
ATOM     15  C   UNL A   1      31.536 -38.389 -34.721  0.00  0.00    -0.048 A 
ATOM     16  C   UNL A   1      32.293 -38.029 -33.592  0.00  0.00    +0.058 A 
BRANCH  11  17
ATOM     17  N   UNL A   1      33.993 -38.570 -31.900  0.00  0.00    -0.314 N 
ATOM     18  H   UNL A   1      34.162 -37.602 -31.838  0.00  0.00    +0.000 HD
BRANCH  17  24
ATOM     19  C   UNL A   1      33.590 -40.984 -27.529  0.00  0.00    -0.039 C 
ATOM     20  C   UNL A   1      34.378 -40.518 -28.724  0.00  0.00    -0.046 A 
ATOM     21  C   UNL A   1      35.738 -40.850 -28.796  0.00  0.00    -0.058 A 
ATOM     22  C   UNL A   1      36.513 -40.432 -29.870  0.00  0.00    -0.060 A 
ATOM     23  C   UNL A   1      35.940 -39.672 -30.886  0.00  0.00    -0.040 A 
ATOM     24  C   UNL A   1      34.584 -39.318 -30.857  0.00  0.00    +0.035 A 
ATOM     25  C   UNL A   1      33.785 -39.773 -29.775  0.00  0.00    -0.026 A 
ATOM     26  C   UNL A   1      32.317 -39.413 -29.725  0.00  0.00    -0.038 C 
ENDBRANCH  17  24
ENDBRANCH  11  17
ENDBRANCH   7  16
ENDBRANCH   6   9
ENDBRANCH   5   6
ENDBRANCH   1   5
BRANCH   3  27
ATOM     27  C   UNL A   1      33.064 -32.444 -30.499  0.00  0.00    +0.013 C 
BRANCH  27  28
ATOM     28  C   UNL A   1      34.354 -32.892 -29.813  0.00  0.00    -0.022 C 
BRANCH  28  29
ATOM     29  C   UNL A   1      35.423 -33.349 -30.807  0.00  0.00    +0.011 C 
BRANCH  29  30
ATOM     30  N   UNL A   1      35.321 -34.787 -31.127  0.00  0.00    -0.343 N 
ATOM     31  H   UNL A   1      34.735 -35.119 -31.845  0.00  0.00    +0.000 HD
BRANCH  30  32
ATOM     32  C   UNL A   1      36.115 -35.664 -30.344  0.00  0.00    +0.041 A 
ATOM     33  C   UNL A   1      37.460 -35.910 -30.702  0.00  0.00    -0.005 A 
ATOM     34  C   UNL A   1      38.223 -36.718 -29.853  0.00  0.00    +0.047 A 
ATOM     35  N   UNL A   1      37.751 -37.228 -28.692  0.00  0.00    -0.251 NA
ATOM     36  C   UNL A   1      36.473 -37.016 -28.360  0.00  0.00    +0.074 A 
ATOM     37  C   UNL A   1      36.013 -37.587 -27.184  0.00  0.00    -0.017 A 
ATOM     38  C   UNL A   1      34.685 -37.451 -26.783  0.00  0.00    +0.043 A 
ATOM     39 CL   UNL A   1      34.154 -38.176 -25.316  0.00  0.00    -0.083 Cl
ATOM     40  C   UNL A   1      33.788 -36.747 -27.570  0.00  0.00    -0.043 A 
ATOM     41  C   UNL A   1      34.238 -36.163 -28.753  0.00  0.00    -0.049 A 
ATOM     42  C   UNL A   1      35.593 -36.257 -29.158  0.00  0.00    +0.022 A 
ATOM     43  C   UNL A   1      39.668 -37.035 -30.139  0.00  0.00    -0.010 C 
ATOM     44  C   UNL A   1      40.039 -36.864 -31.605  0.00  0.00    -0.047 C 
ATOM     45  C   UNL A   1      39.569 -35.504 -32.093  0.00  0.00    -0.049 C 
ATOM     46  C   UNL A   1      38.048 -35.393 -31.995  0.00  0.00    -0.024 C 
ENDBRANCH  30  32
ENDBRANCH  29  30
ENDBRANCH  28  29
ENDBRANCH  27  28
ENDBRANCH   3  27
TORSDOF 11
ENDMDL
MODEL 2
REMARK VINA RESULT:    -7.329      2.223      3.888
REMARK INTER + INTRA:         -17.609
REMARK INTER:                 -13.681
REMARK INTRA:                  -3.927
REMARK UNBOUND:                -5.567
REMARK  Name = cpd46.pdb
REMARK  13 active torsions:
REMARK  status: ('A' for Active; 'I' for Inactive)
REMARK    1  A    between atoms: C_1  and  C_2
REMARK    2  A    between atoms: C_6  and  N_7
REMARK    3  A    between atoms: N_7  and  C_8
REMARK    4  A    between atoms: C_13  and  C_14
REMARK    5  A    between atoms: N_16  and  C_17
REMARK    6  A    between atoms: C_17  and  C_18
REMARK    7  A    between atoms: C_18  and  C_19
REMARK    8  A    between atoms: N_21  and  C_22
REMARK    9  A    between atoms: C_22  and  C_23
REMARK   10  A    between atoms: C_23  and  C_24
REMARK   11  A    between atoms: C_24  and  N_25
REMARK   12  A    between atoms: N_25  and  C_26
REMARK   13  A    between atoms: C_41  and  C_42
REMARK                            x       y       z     vdW  Elec       q    Type
REMARK                         _______ _______ _______ _____ _____    ______ ____
ROOT
ATOM      1  C   UNL A   1      32.123 -35.952 -32.147  0.00  0.00    +0.215 C 
ATOM      2  O   UNL A   1      33.139 -36.633 -32.213  0.00  0.00    -0.276 OA
ATOM      3  N   UNL A   1      32.096 -34.601 -32.426  0.00  0.00    -0.315 N 
ATOM      4  H   UNL A   1      31.226 -34.144 -32.471  0.00  0.00    +0.000 HD
ENDROOT
BRANCH   1   5
ATOM      5  C   UNL A   1      30.767 -36.495 -31.751  0.00  0.00    +0.039 C 
BRANCH   5   6
ATOM      6  C   UNL A   1      30.059 -37.154 -32.927  0.00  0.00    +0.020 C 
BRANCH   6   9
ATOM      7  C   UNL A   1      31.132 -39.367 -33.120  0.00  0.00    +0.246 C 
ATOM      8  O   UNL A   1      30.595 -39.789 -32.102  0.00  0.00    -0.270 OA
ATOM      9  N   UNL A   1      30.936 -38.091 -33.611  0.00  0.00    -0.311 N 
ATOM     10  H   UNL A   1      31.395 -37.812 -34.435  0.00  0.00    +0.000 HD
BRANCH   7  16
ATOM     11  C   UNL A   1      33.230 -40.742 -33.259  0.00  0.00    +0.044 A 
ATOM     12  C   UNL A   1      34.061 -41.589 -34.008  0.00  0.00    -0.040 A 
ATOM     13  C   UNL A   1      33.753 -41.926 -35.330  0.00  0.00    -0.060 A 
ATOM     14  C   UNL A   1      32.603 -41.423 -35.931  0.00  0.00    -0.061 A 
ATOM     15  C   UNL A   1      31.756 -40.583 -35.211  0.00  0.00    -0.048 A 
ATOM     16  C   UNL A   1      32.068 -40.236 -33.885  0.00  0.00    +0.058 A 
BRANCH  11  17
ATOM     17  N   UNL A   1      33.563 -40.372 -31.937  0.00  0.00    -0.314 N 
ATOM     18  H   UNL A   1      33.443 -39.413 -31.752  0.00  0.00    +0.000 HD
BRANCH  17  24
ATOM     19  C   UNL A   1      37.126 -41.297 -28.539  0.00  0.00    -0.039 C 
ATOM     20  C   UNL A   1      35.773 -41.546 -29.150  0.00  0.00    -0.046 A 
ATOM     21  C   UNL A   1      34.961 -42.540 -28.586  0.00  0.00    -0.058 A 
ATOM     22  C   UNL A   1      33.710 -42.821 -29.121  0.00  0.00    -0.060 A 
ATOM     23  C   UNL A   1      33.255 -42.114 -30.232  0.00  0.00    -0.040 A 
ATOM     24  C   UNL A   1      34.033 -41.109 -30.827  0.00  0.00    +0.035 A 
ATOM     25  C   UNL A   1      35.298 -40.802 -30.259  0.00  0.00    -0.026 A 
ATOM     26  C   UNL A   1      36.151 -39.717 -30.877  0.00  0.00    -0.038 C 
ENDBRANCH  17  24
ENDBRANCH  11  17
ENDBRANCH   7  16
ENDBRANCH   6   9
ENDBRANCH   5   6
ENDBRANCH   1   5
BRANCH   3  27
ATOM     27  C   UNL A   1      33.302 -33.829 -32.656  0.00  0.00    +0.013 C 
BRANCH  27  28
ATOM     28  C   UNL A   1      33.843 -33.137 -31.406  0.00  0.00    -0.022 C 
BRANCH  28  29
ATOM     29  C   UNL A   1      35.283 -33.541 -31.084  0.00  0.00    +0.011 C 
BRANCH  29  30
ATOM     30  N   UNL A   1      35.596 -34.916 -31.519  0.00  0.00    -0.343 N 
ATOM     31  H   UNL A   1      35.223 -35.297 -32.347  0.00  0.00    +0.000 HD
BRANCH  30  32
ATOM     32  C   UNL A   1      36.465 -35.660 -30.680  0.00  0.00    +0.041 A 
ATOM     33  C   UNL A   1      35.963 -36.274 -29.510  0.00  0.00    -0.005 A 
ATOM     34  C   UNL A   1      36.840 -37.063 -28.760  0.00  0.00    +0.047 A 
ATOM     35  N   UNL A   1      38.121 -37.302 -29.126  0.00  0.00    -0.251 NA
ATOM     36  C   UNL A   1      38.607 -36.706 -30.220  0.00  0.00    +0.074 A 
ATOM     37  C   UNL A   1      39.934 -36.941 -30.542  0.00  0.00    -0.017 A 
ATOM     38  C   UNL A   1      40.533 -36.329 -31.641  0.00  0.00    +0.043 A 
ATOM     39 CL   UNL A   1      42.183 -36.648 -32.007  0.00  0.00    -0.083 Cl
ATOM     40  C   UNL A   1      39.808 -35.451 -32.431  0.00  0.00    -0.043 A 
ATOM     41  C   UNL A   1      38.470 -35.209 -32.121  0.00  0.00    -0.049 A 
ATOM     42  C   UNL A   1      37.833 -35.852 -31.031  0.00  0.00    +0.022 A 
ATOM     43  C   UNL A   1      36.403 -37.767 -27.501  0.00  0.00    -0.010 C 
ATOM     44  C   UNL A   1      35.166 -37.148 -26.867  0.00  0.00    -0.047 C 
ATOM     45  C   UNL A   1      34.084 -36.982 -27.922  0.00  0.00    -0.049 C 
ATOM     46  C   UNL A   1      34.550 -36.034 -29.027  0.00  0.00    -0.024 C 
ENDBRANCH  30  32
ENDBRANCH  29  30
ENDBRANCH  28  29
ENDBRANCH  27  28
ENDBRANCH   3  27
TORSDOF 11
ENDMDL
MODEL 3
REMARK VINA RESULT:    -6.728     16.626     20.349
REMARK INTER + INTRA:         -16.622
REMARK INTER:                 -12.155
REMARK INTRA:                  -4.467
REMARK UNBOUND:                -5.567
REMARK  Name = cpd46.pdb
REMARK  13 active torsions:
REMARK  status: ('A' for Active; 'I' for Inactive)
REMARK    1  A    between atoms: C_1  and  C_2
REMARK    2  A    between atoms: C_6  and  N_7
REMARK    3  A    between atoms: N_7  and  C_8
REMARK    4  A    between atoms: C_13  and  C_14
REMARK    5  A    between atoms: N_16  and  C_17
REMARK    6  A    between atoms: C_17  and  C_18
REMARK    7  A    between atoms: C_18  and  C_19
REMARK    8  A    between atoms: N_21  and  C_22
REMARK    9  A    between atoms: C_22  and  C_23
REMARK   10  A    between atoms: C_23  and  C_24
REMARK   11  A    between atoms: C_24  and  N_25
REMARK   12  A    between atoms: N_25  and  C_26
REMARK   13  A    between atoms: C_41  and  C_42
REMARK                            x       y       z     vdW  Elec       q    Type
REMARK                         _______ _______ _______ _____ _____    ______ ____
ROOT
ATOM      1  C   UNL A   1      46.043 -18.801 -36.086  0.00  0.00    +0.215 C 
ATOM      2  O   UNL A   1      45.839 -20.003 -36.208  0.00  0.00    -0.276 OA
ATOM      3  N   UNL A   1      45.131 -17.930 -35.527  0.00  0.00    -0.315 N 
ATOM      4  H   UNL A   1      45.410 -17.003 -35.350  0.00  0.00    +0.000 HD
ENDROOT
BRANCH   1   5
ATOM      5  C   UNL A   1      47.315 -18.112 -36.529  0.00  0.00    +0.039 C 
BRANCH   5   6
ATOM      6  C   UNL A   1      47.158 -17.468 -37.899  0.00  0.00    +0.020 C 
BRANCH   6   9
ATOM      7  C   UNL A   1      45.193 -18.199 -39.200  0.00  0.00    +0.246 C 
ATOM      8  O   UNL A   1      44.489 -17.291 -38.770  0.00  0.00    -0.270 OA
ATOM      9  N   UNL A   1      46.514 -18.373 -38.837  0.00  0.00    -0.311 N 
ATOM     10  H   UNL A   1      47.027 -19.121 -39.219  0.00  0.00    +0.000 HD
BRANCH   7  16
ATOM     11  C   UNL A   1      43.697 -20.157 -39.686  0.00  0.00    +0.044 A 
ATOM     12  C   UNL A   1      43.161 -21.052 -40.624  0.00  0.00    -0.040 A 
ATOM     13  C   UNL A   1      43.528 -20.999 -41.972  0.00  0.00    -0.060 A 
ATOM     14  C   UNL A   1      44.440 -20.044 -42.412  0.00  0.00    -0.061 A 
ATOM     15  C   UNL A   1      44.988 -19.140 -41.504  0.00  0.00    -0.048 A 
ATOM     16  C   UNL A   1      44.626 -19.197 -40.147  0.00  0.00    +0.058 A 
BRANCH  11  17
ATOM     17  N   UNL A   1      43.354 -20.237 -38.318  0.00  0.00    -0.314 N 
ATOM     18  H   UNL A   1      44.067 -19.931 -37.713  0.00  0.00    +0.000 HD
BRANCH  17  24
ATOM     19  C   UNL A   1      38.779 -19.280 -36.514  0.00  0.00    -0.039 C 
ATOM     20  C   UNL A   1      39.937 -20.203 -36.783  0.00  0.00    -0.046 A 
ATOM     21  C   UNL A   1      39.840 -21.535 -36.356  0.00  0.00    -0.058 A 
ATOM     22  C   UNL A   1      40.886 -22.425 -36.566  0.00  0.00    -0.060 A 
ATOM     23  C   UNL A   1      42.048 -21.993 -37.202  0.00  0.00    -0.040 A 
ATOM     24  C   UNL A   1      42.188 -20.671 -37.648  0.00  0.00    +0.035 A 
ATOM     25  C   UNL A   1      41.105 -19.771 -37.461  0.00  0.00    -0.026 A 
ATOM     26  C   UNL A   1      41.228 -18.343 -37.941  0.00  0.00    -0.038 C 
ENDBRANCH  17  24
ENDBRANCH  11  17
ENDBRANCH   7  16
ENDBRANCH   6   9
ENDBRANCH   5   6
ENDBRANCH   1   5
BRANCH   3  27
ATOM     27  C   UNL A   1      43.778 -18.329 -35.191  0.00  0.00    +0.013 C 
BRANCH  27  28
ATOM     28  C   UNL A   1      43.658 -19.045 -33.847  0.00  0.00    -0.022 C 
BRANCH  28  29
ATOM     29  C   UNL A   1      42.669 -20.212 -33.886  0.00  0.00    +0.011 C 
BRANCH  29  30
ATOM     30  N   UNL A   1      41.924 -20.365 -32.620  0.00  0.00    -0.343 N 
ATOM     31  H   UNL A   1      42.384 -20.458 -31.754  0.00  0.00    +0.000 HD
BRANCH  30  32
ATOM     32  C   UNL A   1      40.509 -20.373 -32.719  0.00  0.00    +0.041 A 
ATOM     33  C   UNL A   1      39.792 -19.156 -32.683  0.00  0.00    -0.005 A 
ATOM     34  C   UNL A   1      38.406 -19.210 -32.866  0.00  0.00    +0.047 A 
ATOM     35  N   UNL A   1      37.736 -20.358 -33.121  0.00  0.00    -0.251 NA
ATOM     36  C   UNL A   1      38.408 -21.514 -33.134  0.00  0.00    +0.074 A 
ATOM     37  C   UNL A   1      37.682 -22.674 -33.359  0.00  0.00    -0.017 A 
ATOM     38  C   UNL A   1      38.295 -23.925 -33.349  0.00  0.00    +0.043 A 
ATOM     39 CL   UNL A   1      37.359 -25.340 -33.632  0.00  0.00    -0.083 Cl
ATOM     40  C   UNL A   1      39.653 -24.035 -33.095  0.00  0.00    -0.043 A 
ATOM     41  C   UNL A   1      40.395 -22.876 -32.872  0.00  0.00    -0.049 A 
ATOM     42  C   UNL A   1      39.798 -21.592 -32.918  0.00  0.00    +0.022 A 
ATOM     43  C   UNL A   1      37.550 -17.970 -32.854  0.00  0.00    -0.010 C 
ATOM     44  C   UNL A   1      38.203 -16.800 -32.131  0.00  0.00    -0.047 C 
ATOM     45  C   UNL A   1      39.615 -16.602 -32.657  0.00  0.00    -0.049 C 
ATOM     46  C   UNL A   1      40.470 -17.839 -32.380  0.00  0.00    -0.024 C 
ENDBRANCH  30  32
ENDBRANCH  29  30
ENDBRANCH  28  29
ENDBRANCH  27  28
ENDBRANCH   3  27
TORSDOF 11
ENDMDL
MODEL 4
REMARK VINA RESULT:    -6.642     18.500     22.397
REMARK INTER + INTRA:         -16.480
REMARK INTER:                 -12.643
REMARK INTRA:                  -3.836
REMARK UNBOUND:                -5.567
REMARK  Name = cpd46.pdb
REMARK  13 active torsions:
REMARK  status: ('A' for Active; 'I' for Inactive)
REMARK    1  A    between atoms: C_1  and  C_2
REMARK    2  A    between atoms: C_6  and  N_7
REMARK    3  A    between atoms: N_7  and  C_8
REMARK    4  A    between atoms: C_13  and  C_14
REMARK    5  A    between atoms: N_16  and  C_17
REMARK    6  A    between atoms: C_17  and  C_18
REMARK    7  A    between atoms: C_18  and  C_19
REMARK    8  A    between atoms: N_21  and  C_22
REMARK    9  A    between atoms: C_22  and  C_23
REMARK   10  A    between atoms: C_23  and  C_24
REMARK   11  A    between atoms: C_24  and  N_25
REMARK   12  A    between atoms: N_25  and  C_26
REMARK   13  A    between atoms: C_41  and  C_42
REMARK                            x       y       z     vdW  Elec       q    Type
REMARK                         _______ _______ _______ _____ _____    ______ ____
ROOT
ATOM      1  C   UNL A   1      46.389 -17.890 -34.772  0.00  0.00    +0.215 C 
ATOM      2  O   UNL A   1      46.638 -17.745 -33.581  0.00  0.00    -0.276 OA
ATOM      3  N   UNL A   1      45.181 -17.544 -35.341  0.00  0.00    -0.315 N 
ATOM      4  H   UNL A   1      45.094 -17.574 -36.321  0.00  0.00    +0.000 HD
ENDROOT
BRANCH   1   5
ATOM      5  C   UNL A   1      47.365 -18.466 -35.774  0.00  0.00    +0.039 C 
BRANCH   5   6
ATOM      6  C   UNL A   1      47.190 -19.970 -35.929  0.00  0.00    +0.020 C 
BRANCH   6   9
ATOM      7  C   UNL A   1      45.850 -20.309 -37.972  0.00  0.00    +0.246 C 
ATOM      8  O   UNL A   1      44.807 -19.966 -37.424  0.00  0.00    -0.270 OA
ATOM      9  N   UNL A   1      47.071 -20.345 -37.329  0.00  0.00    -0.311 N 
ATOM     10  H   UNL A   1      47.872 -20.628 -37.825  0.00  0.00    +0.000 HD
BRANCH   7  16
ATOM     11  C   UNL A   1      45.526 -19.801 -40.412  0.00  0.00    +0.044 A 
ATOM     12  C   UNL A   1      45.565 -20.243 -41.742  0.00  0.00    -0.040 A 
ATOM     13  C   UNL A   1      45.901 -21.562 -42.062  0.00  0.00    -0.060 A 
ATOM     14  C   UNL A   1      46.208 -22.470 -41.053  0.00  0.00    -0.061 A 
ATOM     15  C   UNL A   1      46.182 -22.060 -39.721  0.00  0.00    -0.048 A 
ATOM     16  C   UNL A   1      45.836 -20.737 -39.398  0.00  0.00    +0.058 A 
BRANCH  11  17
ATOM     17  N   UNL A   1      45.150 -18.479 -40.089  0.00  0.00    -0.314 N 
ATOM     18  H   UNL A   1      44.385 -18.425 -39.471  0.00  0.00    +0.000 HD
BRANCH  17  24
ATOM     19  C   UNL A   1      44.383 -13.857 -41.862  0.00  0.00    -0.039 C 
ATOM     20  C   UNL A   1      45.274 -14.946 -41.329  0.00  0.00    -0.046 A 
ATOM     21  C   UNL A   1      46.647 -14.687 -41.213  0.00  0.00    -0.058 A 
ATOM     22  C   UNL A   1      47.514 -15.663 -40.740  0.00  0.00    -0.060 A 
ATOM     23  C   UNL A   1      47.022 -16.916 -40.381  0.00  0.00    -0.040 A 
ATOM     24  C   UNL A   1      45.656 -17.218 -40.478  0.00  0.00    +0.035 A 
ATOM     25  C   UNL A   1      44.765 -16.209 -40.931  0.00  0.00    -0.026 A 
ATOM     26  C   UNL A   1      43.287 -16.508 -41.036  0.00  0.00    -0.038 C 
ENDBRANCH  17  24
ENDBRANCH  11  17
ENDBRANCH   7  16
ENDBRANCH   6   9
ENDBRANCH   5   6
ENDBRANCH   1   5
BRANCH   3  27
ATOM     27  C   UNL A   1      44.034 -17.138 -34.551  0.00  0.00    +0.013 C 
BRANCH  27  28
ATOM     28  C   UNL A   1      42.847 -18.094 -34.645  0.00  0.00    -0.022 C 
BRANCH  28  29
ATOM     29  C   UNL A   1      41.780 -17.616 -35.633  0.00  0.00    +0.011 C 
BRANCH  29  30
ATOM     30  N   UNL A   1      40.591 -18.491 -35.649  0.00  0.00    -0.343 N 
ATOM     31  H   UNL A   1      39.684 -18.138 -35.496  0.00  0.00    +0.000 HD
BRANCH  30  32
ATOM     32  C   UNL A   1      40.825 -19.868 -35.895  0.00  0.00    +0.041 A 
ATOM     33  C   UNL A   1      40.601 -20.817 -34.872  0.00  0.00    -0.005 A 
ATOM     34  C   UNL A   1      40.768 -22.169 -35.189  0.00  0.00    +0.047 A 
ATOM     35  N   UNL A   1      41.084 -22.607 -36.430  0.00  0.00    -0.251 NA
ATOM     36  C   UNL A   1      41.319 -21.712 -37.395  0.00  0.00    +0.074 A 
ATOM     37  C   UNL A   1      41.679 -22.195 -38.643  0.00  0.00    -0.017 A 
ATOM     38  C   UNL A   1      41.981 -21.332 -39.695  0.00  0.00    +0.043 A 
ATOM     39 CL   UNL A   1      42.424 -21.973 -41.229  0.00  0.00    -0.083 Cl
ATOM     40  C   UNL A   1      41.941 -19.960 -39.505  0.00  0.00    -0.043 A 
ATOM     41  C   UNL A   1      41.575 -19.461 -38.256  0.00  0.00    -0.049 A 
ATOM     42  C   UNL A   1      41.227 -20.321 -37.185  0.00  0.00    +0.022 A 
ATOM     43  C   UNL A   1      40.546 -23.260 -34.173  0.00  0.00    -0.010 C 
ATOM     44  C   UNL A   1      40.652 -22.771 -32.736  0.00  0.00    -0.047 C 
ATOM     45  C   UNL A   1      39.784 -21.536 -32.555  0.00  0.00    -0.049 C 
ATOM     46  C   UNL A   1      40.268 -20.401 -33.457  0.00  0.00    -0.024 C 
ENDBRANCH  30  32
ENDBRANCH  29  30
ENDBRANCH  28  29
ENDBRANCH  27  28
ENDBRANCH   3  27
TORSDOF 11
ENDMDL
MODEL 5
REMARK VINA RESULT:    -6.595     17.807     21.345
REMARK INTER + INTRA:         -16.403
REMARK INTER:                 -13.038
REMARK INTRA:                  -3.365
REMARK UNBOUND:                -5.567
REMARK  Name = cpd46.pdb
REMARK  13 active torsions:
REMARK  status: ('A' for Active; 'I' for Inactive)
REMARK    1  A    between atoms: C_1  and  C_2
REMARK    2  A    between atoms: C_6  and  N_7
REMARK    3  A    between atoms: N_7  and  C_8
REMARK    4  A    between atoms: C_13  and  C_14
REMARK    5  A    between atoms: N_16  and  C_17
REMARK    6  A    between atoms: C_17  and  C_18
REMARK    7  A    between atoms: C_18  and  C_19
REMARK    8  A    between atoms: N_21  and  C_22
REMARK    9  A    between atoms: C_22  and  C_23
REMARK   10  A    between atoms: C_23  and  C_24
REMARK   11  A    between atoms: C_24  and  N_25
REMARK   12  A    between atoms: N_25  and  C_26
REMARK   13  A    between atoms: C_41  and  C_42
REMARK                            x       y       z     vdW  Elec       q    Type
REMARK                         _______ _______ _______ _____ _____    ______ ____
ROOT
ATOM      1  C   UNL A   1      45.369 -17.227 -34.335  0.00  0.00    +0.215 C 
ATOM      2  O   UNL A   1      45.105 -16.599 -35.354  0.00  0.00    -0.276 OA
ATOM      3  N   UNL A   1      46.407 -18.131 -34.250  0.00  0.00    -0.315 N 
ATOM      4  H   UNL A   1      46.636 -18.507 -33.370  0.00  0.00    +0.000 HD
ENDROOT
BRANCH   1   5
ATOM      5  C   UNL A   1      44.595 -17.100 -33.041  0.00  0.00    +0.039 C 
BRANCH   5   6
ATOM      6  C   UNL A   1      43.545 -18.193 -32.903  0.00  0.00    +0.020 C 
BRANCH   6   9
ATOM      7  C   UNL A   1      43.004 -19.653 -34.817  0.00  0.00    +0.246 C 
ATOM      8  O   UNL A   1      43.676 -20.582 -34.382  0.00  0.00    -0.270 OA
ATOM      9  N   UNL A   1      42.873 -18.441 -34.169  0.00  0.00    -0.311 N 
ATOM     10  H   UNL A   1      42.317 -17.734 -34.569  0.00  0.00    +0.000 HD
BRANCH   7  16
ATOM     11  C   UNL A   1      41.280 -20.766 -36.267  0.00  0.00    +0.044 A 
ATOM     12  C   UNL A   1      40.613 -20.832 -37.499  0.00  0.00    -0.040 A 
ATOM     13  C   UNL A   1      40.934 -19.964 -38.548  0.00  0.00    -0.060 A 
ATOM     14  C   UNL A   1      41.931 -19.007 -38.383  0.00  0.00    -0.061 A 
ATOM     15  C   UNL A   1      42.609 -18.915 -37.169  0.00  0.00    -0.048 A 
ATOM     16  C   UNL A   1      42.294 -19.792 -36.118  0.00  0.00    +0.058 A 
BRANCH  11  17
ATOM     17  N   UNL A   1      40.981 -21.669 -35.222  0.00  0.00    -0.314 N 
ATOM     18  H   UNL A   1      41.766 -22.159 -34.886  0.00  0.00    +0.000 HD
BRANCH  17  24
ATOM     19  C   UNL A   1      36.865 -20.278 -32.729  0.00  0.00    -0.039 C 
ATOM     20  C   UNL A   1      37.750 -21.319 -33.361  0.00  0.00    -0.046 A 
ATOM     21  C   UNL A   1      37.351 -22.661 -33.295  0.00  0.00    -0.058 A 
ATOM     22  C   UNL A   1      38.138 -23.662 -33.849  0.00  0.00    -0.060 A 
ATOM     23  C   UNL A   1      39.339 -23.335 -34.474  0.00  0.00    -0.040 A 
ATOM     24  C   UNL A   1      39.777 -22.006 -34.565  0.00  0.00    +0.035 A 
ATOM     25  C   UNL A   1      38.955 -20.980 -34.026  0.00  0.00    -0.026 A 
ATOM     26  C   UNL A   1      39.400 -19.539 -34.121  0.00  0.00    -0.038 C 
ENDBRANCH  17  24
ENDBRANCH  11  17
ENDBRANCH   7  16
ENDBRANCH   6   9
ENDBRANCH   5   6
ENDBRANCH   1   5
BRANCH   3  27
ATOM     27  C   UNL A   1      47.175 -18.548 -35.407  0.00  0.00    +0.013 C 
BRANCH  27  28
ATOM     28  C   UNL A   1      46.937 -20.001 -35.818  0.00  0.00    -0.022 C 
BRANCH  28  29
ATOM     29  C   UNL A   1      46.125 -20.124 -37.109  0.00  0.00    +0.011 C 
BRANCH  29  30
ATOM     30  N   UNL A   1      46.916 -19.788 -38.310  0.00  0.00    -0.343 N 
ATOM     31  H   UNL A   1      47.872 -19.557 -38.255  0.00  0.00    +0.000 HD
BRANCH  30  32
ATOM     32  C   UNL A   1      46.224 -19.814 -39.548  0.00  0.00    +0.041 A 
ATOM     33  C   UNL A   1      46.288 -20.962 -40.369  0.00  0.00    -0.005 A 
ATOM     34  C   UNL A   1      45.523 -20.970 -41.540  0.00  0.00    +0.047 A 
ATOM     35  N   UNL A   1      44.696 -19.959 -41.892  0.00  0.00    -0.251 NA
ATOM     36  C   UNL A   1      44.649 -18.861 -41.130  0.00  0.00    +0.074 A 
ATOM     37  C   UNL A   1      43.821 -17.829 -41.543  0.00  0.00    -0.017 A 
ATOM     38  C   UNL A   1      43.742 -16.634 -40.831  0.00  0.00    +0.043 A 
ATOM     39 CL   UNL A   1      42.702 -15.377 -41.378  0.00  0.00    -0.083 Cl
ATOM     40  C   UNL A   1      44.510 -16.448 -39.693  0.00  0.00    -0.043 A 
ATOM     41  C   UNL A   1      45.343 -17.480 -39.263  0.00  0.00    -0.049 A 
ATOM     42  C   UNL A   1      45.408 -18.717 -39.951  0.00  0.00    +0.022 A 
ATOM     43  C   UNL A   1      45.515 -22.148 -42.480  0.00  0.00    -0.010 C 
ATOM     44  C   UNL A   1      46.742 -23.037 -42.336  0.00  0.00    -0.047 C 
ATOM     45  C   UNL A   1      46.949 -23.384 -40.871  0.00  0.00    -0.049 C 
ATOM     46  C   UNL A   1      47.207 -22.120 -40.051  0.00  0.00    -0.024 C 
ENDBRANCH  30  32
ENDBRANCH  29  30
ENDBRANCH  28  29
ENDBRANCH  27  28
ENDBRANCH   3  27
TORSDOF 11
ENDMDL
MODEL 6
REMARK VINA RESULT:    -6.585      3.383      6.998
REMARK INTER + INTRA:         -16.387
REMARK INTER:                 -12.468
REMARK INTRA:                  -3.919
REMARK UNBOUND:                -5.567
REMARK  Name = cpd46.pdb
REMARK  13 active torsions:
REMARK  status: ('A' for Active; 'I' for Inactive)
REMARK    1  A    between atoms: C_1  and  C_2
REMARK    2  A    between atoms: C_6  and  N_7
REMARK    3  A    between atoms: N_7  and  C_8
REMARK    4  A    between atoms: C_13  and  C_14
REMARK    5  A    between atoms: N_16  and  C_17
REMARK    6  A    between atoms: C_17  and  C_18
REMARK    7  A    between atoms: C_18  and  C_19
REMARK    8  A    between atoms: N_21  and  C_22
REMARK    9  A    between atoms: C_22  and  C_23
REMARK   10  A    between atoms: C_23  and  C_24
REMARK   11  A    between atoms: C_24  and  N_25
REMARK   12  A    between atoms: N_25  and  C_26
REMARK   13  A    between atoms: C_41  and  C_42
REMARK                            x       y       z     vdW  Elec       q    Type
REMARK                         _______ _______ _______ _____ _____    ______ ____
ROOT
ATOM      1  C   UNL A   1      35.534 -40.683 -29.255  0.00  0.00    +0.215 C 
ATOM      2  O   UNL A   1      36.537 -41.211 -28.790  0.00  0.00    -0.276 OA
ATOM      3  N   UNL A   1      34.381 -40.473 -28.527  0.00  0.00    -0.315 N 
ATOM      4  H   UNL A   1      33.660 -39.936 -28.927  0.00  0.00    +0.000 HD
ENDROOT
BRANCH   1   5
ATOM      5  C   UNL A   1      35.423 -40.193 -30.682  0.00  0.00    +0.039 C 
BRANCH   5   6
ATOM      6  C   UNL A   1      33.995 -39.799 -31.032  0.00  0.00    +0.020 C 
BRANCH   6   9
ATOM      7  C   UNL A   1      33.593 -37.470 -30.324  0.00  0.00    +0.246 C 
ATOM      8  O   UNL A   1      33.392 -37.791 -29.157  0.00  0.00    -0.270 OA
ATOM      9  N   UNL A   1      33.896 -38.377 -31.320  0.00  0.00    -0.311 N 
ATOM     10  H   UNL A   1      34.048 -38.057 -32.238  0.00  0.00    +0.000 HD
BRANCH   7  16
ATOM     11  C   UNL A   1      34.502 -35.129 -30.356  0.00  0.00    +0.044 A 
ATOM     12  C   UNL A   1      34.383 -33.803 -30.798  0.00  0.00    -0.040 A 
ATOM     13  C   UNL A   1      33.304 -33.394 -31.589  0.00  0.00    -0.060 A 
ATOM     14  C   UNL A   1      32.320 -34.307 -31.956  0.00  0.00    -0.061 A 
ATOM     15  C   UNL A   1      32.413 -35.632 -31.534  0.00  0.00    -0.048 A 
ATOM     16  C   UNL A   1      33.492 -36.043 -30.733  0.00  0.00    +0.058 A 
BRANCH  11  17
ATOM     17  N   UNL A   1      35.572 -35.531 -29.526  0.00  0.00    -0.314 N 
ATOM     18  H   UNL A   1      35.410 -35.375 -28.568  0.00  0.00    +0.000 HD
BRANCH  17  24
ATOM     19  C   UNL A   1      39.233 -38.728 -28.310  0.00  0.00    -0.039 C 
ATOM     20  C   UNL A   1      38.613 -37.696 -29.214  0.00  0.00    -0.046 A 
ATOM     21  C   UNL A   1      39.313 -37.314 -30.367  0.00  0.00    -0.058 A 
ATOM     22  C   UNL A   1      38.793 -36.355 -31.227  0.00  0.00    -0.060 A 
ATOM     23  C   UNL A   1      37.566 -35.760 -30.943  0.00  0.00    -0.040 A 
ATOM     24  C   UNL A   1      36.830 -36.113 -29.802  0.00  0.00    +0.035 A 
ATOM     25  C   UNL A   1      37.348 -37.116 -28.941  0.00  0.00    -0.026 A 
ATOM     26  C   UNL A   1      36.569 -37.521 -27.710  0.00  0.00    -0.038 C 
ENDBRANCH  17  24
ENDBRANCH  11  17
ENDBRANCH   7  16
ENDBRANCH   6   9
ENDBRANCH   5   6
ENDBRANCH   1   5
BRANCH   3  27
ATOM     27  C   UNL A   1      34.191 -41.014 -27.195  0.00  0.00    +0.013 C 
BRANCH  27  28
ATOM     28  C   UNL A   1      32.725 -41.166 -26.791  0.00  0.00    -0.022 C 
BRANCH  28  29
ATOM     29  C   UNL A   1      32.533 -41.218 -25.274  0.00  0.00    +0.011 C 
BRANCH  29  30
ATOM     30  N   UNL A   1      31.550 -40.227 -24.793  0.00  0.00    -0.343 N 
ATOM     31  H   UNL A   1      30.603 -40.460 -24.656  0.00  0.00    +0.000 HD
BRANCH  30  32
ATOM     32  C   UNL A   1      32.043 -38.921 -24.540  0.00  0.00    +0.041 A 
ATOM     33  C   UNL A   1      32.839 -38.676 -23.398  0.00  0.00    -0.005 A 
ATOM     34  C   UNL A   1      33.368 -37.391 -23.237  0.00  0.00    +0.047 A 
ATOM     35  N   UNL A   1      33.194 -36.398 -24.140  0.00  0.00    -0.251 NA
ATOM     36  C   UNL A   1      32.423 -36.620 -25.210  0.00  0.00    +0.074 A 
ATOM     37  C   UNL A   1      32.234 -35.567 -26.093  0.00  0.00    -0.017 A 
ATOM     38  C   UNL A   1      31.414 -35.698 -27.211  0.00  0.00    +0.043 A 
ATOM     39 CL   UNL A   1      31.206 -34.368 -28.281  0.00  0.00    -0.083 Cl
ATOM     40  C   UNL A   1      30.753 -36.891 -27.456  0.00  0.00    -0.043 A 
ATOM     41  C   UNL A   1      30.938 -37.959 -26.579  0.00  0.00    -0.049 A 
ATOM     42  C   UNL A   1      31.798 -37.858 -25.458  0.00  0.00    +0.022 A 
ATOM     43  C   UNL A   1      34.236 -37.027 -22.060  0.00  0.00    -0.010 C 
ATOM     44  C   UNL A   1      34.048 -37.956 -20.868  0.00  0.00    -0.047 C 
ATOM     45  C   UNL A   1      34.158 -39.401 -21.328  0.00  0.00    -0.049 C 
ATOM     46  C   UNL A   1      33.058 -39.729 -22.337  0.00  0.00    -0.024 C 
ENDBRANCH  30  32
ENDBRANCH  29  30
ENDBRANCH  28  29
ENDBRANCH  27  28
ENDBRANCH   3  27
TORSDOF 11
ENDMDL
MODEL 7
REMARK VINA RESULT:    -6.583     16.903     20.579
REMARK INTER + INTRA:         -16.383
REMARK INTER:                 -12.000
REMARK INTRA:                  -4.383
REMARK UNBOUND:                -5.567
REMARK  Name = cpd46.pdb
REMARK  13 active torsions:
REMARK  status: ('A' for Active; 'I' for Inactive)
REMARK    1  A    between atoms: C_1  and  C_2
REMARK    2  A    between atoms: C_6  and  N_7
REMARK    3  A    between atoms: N_7  and  C_8
REMARK    4  A    between atoms: C_13  and  C_14
REMARK    5  A    between atoms: N_16  and  C_17
REMARK    6  A    between atoms: C_17  and  C_18
REMARK    7  A    between atoms: C_18  and  C_19
REMARK    8  A    between atoms: N_21  and  C_22
REMARK    9  A    between atoms: C_22  and  C_23
REMARK   10  A    between atoms: C_23  and  C_24
REMARK   11  A    between atoms: C_24  and  N_25
REMARK   12  A    between atoms: N_25  and  C_26
REMARK   13  A    between atoms: C_41  and  C_42
REMARK                            x       y       z     vdW  Elec       q    Type
REMARK                         _______ _______ _______ _____ _____    ______ ____
ROOT
ATOM      1  C   UNL A   1      45.922 -18.831 -36.328  0.00  0.00    +0.215 C 
ATOM      2  O   UNL A   1      45.696 -20.001 -36.608  0.00  0.00    -0.276 OA
ATOM      3  N   UNL A   1      45.078 -18.059 -35.556  0.00  0.00    -0.315 N 
ATOM      4  H   UNL A   1      45.381 -17.167 -35.271  0.00  0.00    +0.000 HD
ENDROOT
BRANCH   1   5
ATOM      5  C   UNL A   1      47.149 -18.075 -36.788  0.00  0.00    +0.039 C 
BRANCH   5   6
ATOM      6  C   UNL A   1      46.960 -17.488 -38.180  0.00  0.00    +0.020 C 
BRANCH   6   9
ATOM      7  C   UNL A   1      45.027 -18.221 -39.527  0.00  0.00    +0.246 C 
ATOM      8  O   UNL A   1      44.361 -17.236 -39.226  0.00  0.00    -0.270 OA
ATOM      9  N   UNL A   1      46.312 -18.438 -39.069  0.00  0.00    -0.311 N 
ATOM     10  H   UNL A   1      46.796 -19.249 -39.348  0.00  0.00    +0.000 HD
BRANCH   7  16
ATOM     11  C   UNL A   1      43.543 -20.216 -39.884  0.00  0.00    +0.044 A 
ATOM     12  C   UNL A   1      42.997 -21.160 -40.766  0.00  0.00    -0.040 A 
ATOM     13  C   UNL A   1      43.332 -21.168 -42.124  0.00  0.00    -0.060 A 
ATOM     14  C   UNL A   1      44.223 -20.226 -42.629  0.00  0.00    -0.061 A 
ATOM     15  C   UNL A   1      44.781 -19.273 -41.778  0.00  0.00    -0.048 A 
ATOM     16  C   UNL A   1      44.451 -19.269 -40.412  0.00  0.00    +0.058 A 
BRANCH  11  17
ATOM     17  N   UNL A   1      43.233 -20.234 -38.506  0.00  0.00    -0.314 N 
ATOM     18  H   UNL A   1      43.957 -19.894 -37.933  0.00  0.00    +0.000 HD
BRANCH  17  24
ATOM     19  C   UNL A   1      38.846 -19.143 -36.348  0.00  0.00    -0.039 C 
ATOM     20  C   UNL A   1      39.926 -20.110 -36.750  0.00  0.00    -0.046 A 
ATOM     21  C   UNL A   1      39.775 -21.461 -36.404  0.00  0.00    -0.058 A 
ATOM     22  C   UNL A   1      40.750 -22.391 -36.738  0.00  0.00    -0.060 A 
ATOM     23  C   UNL A   1      41.894 -21.984 -37.421  0.00  0.00    -0.040 A 
ATOM     24  C   UNL A   1      42.086 -20.645 -37.790  0.00  0.00    +0.035 A 
ATOM     25  C   UNL A   1      41.074 -19.700 -37.475  0.00  0.00    -0.026 A 
ATOM     26  C   UNL A   1      41.253 -18.252 -37.871  0.00  0.00    -0.038 C 
ENDBRANCH  17  24
ENDBRANCH  11  17
ENDBRANCH   7  16
ENDBRANCH   6   9
ENDBRANCH   5   6
ENDBRANCH   1   5
BRANCH   3  27
ATOM     27  C   UNL A   1      43.762 -18.512 -35.150  0.00  0.00    +0.013 C 
BRANCH  27  28
ATOM     28  C   UNL A   1      43.752 -19.290 -33.835  0.00  0.00    -0.022 C 
BRANCH  28  29
ATOM     29  C   UNL A   1      42.713 -20.413 -33.821  0.00  0.00    +0.011 C 
BRANCH  29  30
ATOM     30  N   UNL A   1      41.918 -20.433 -32.576  0.00  0.00    -0.343 N 
ATOM     31  H   UNL A   1      42.340 -20.532 -31.692  0.00  0.00    +0.000 HD
BRANCH  30  32
ATOM     32  C   UNL A   1      40.513 -20.303 -32.724  0.00  0.00    +0.041 A 
ATOM     33  C   UNL A   1      39.714 -21.452 -32.922  0.00  0.00    -0.005 A 
ATOM     34  C   UNL A   1      38.327 -21.279 -32.980  0.00  0.00    +0.047 A 
ATOM     35  N   UNL A   1      37.721 -20.081 -32.809  0.00  0.00    -0.251 NA
ATOM     36  C   UNL A   1      38.474 -18.988 -32.644  0.00  0.00    +0.074 A 
ATOM     37  C   UNL A   1      37.821 -17.773 -32.513  0.00  0.00    -0.017 A 
ATOM     38  C   UNL A   1      38.528 -16.580 -32.378  0.00  0.00    +0.043 A 
ATOM     39 CL   UNL A   1      37.678 -15.093 -32.218  0.00  0.00    -0.083 Cl
ATOM     40  C   UNL A   1      39.914 -16.586 -32.389  0.00  0.00    -0.043 A 
ATOM     41  C   UNL A   1      40.584 -17.802 -32.516  0.00  0.00    -0.049 A 
ATOM     42  C   UNL A   1      39.883 -19.029 -32.614  0.00  0.00    +0.022 A 
ATOM     43  C   UNL A   1      37.386 -22.438 -33.178  0.00  0.00    -0.010 C 
ATOM     44  C   UNL A   1      38.055 -23.650 -33.812  0.00  0.00    -0.047 C 
ATOM     45  C   UNL A   1      39.332 -23.979 -33.057  0.00  0.00    -0.049 C 
ATOM     46  C   UNL A   1      40.322 -22.818 -33.143  0.00  0.00    -0.024 C 
ENDBRANCH  30  32
ENDBRANCH  29  30
ENDBRANCH  28  29
ENDBRANCH  27  28
ENDBRANCH   3  27
TORSDOF 11
ENDMDL
MODEL 8
REMARK VINA RESULT:    -6.495     20.400     22.906
REMARK INTER + INTRA:         -16.238
REMARK INTER:                 -11.848
REMARK INTRA:                  -4.390
REMARK UNBOUND:                -5.567
REMARK  Name = cpd46.pdb
REMARK  13 active torsions:
REMARK  status: ('A' for Active; 'I' for Inactive)
REMARK    1  A    between atoms: C_1  and  C_2
REMARK    2  A    between atoms: C_6  and  N_7
REMARK    3  A    between atoms: N_7  and  C_8
REMARK    4  A    between atoms: C_13  and  C_14
REMARK    5  A    between atoms: N_16  and  C_17
REMARK    6  A    between atoms: C_17  and  C_18
REMARK    7  A    between atoms: C_18  and  C_19
REMARK    8  A    between atoms: N_21  and  C_22
REMARK    9  A    between atoms: C_22  and  C_23
REMARK   10  A    between atoms: C_23  and  C_24
REMARK   11  A    between atoms: C_24  and  N_25
REMARK   12  A    between atoms: N_25  and  C_26
REMARK   13  A    between atoms: C_41  and  C_42
REMARK                            x       y       z     vdW  Elec       q    Type
REMARK                         _______ _______ _______ _____ _____    ______ ____
ROOT
ATOM      1  C   UNL A   1      45.462 -17.398 -34.770  0.00  0.00    +0.215 C 
ATOM      2  O   UNL A   1      45.505 -16.675 -35.758  0.00  0.00    -0.276 OA
ATOM      3  N   UNL A   1      46.467 -18.279 -34.431  0.00  0.00    -0.315 N 
ATOM      4  H   UNL A   1      46.421 -18.738 -33.561  0.00  0.00    +0.000 HD
ENDROOT
BRANCH   1   5
ATOM      5  C   UNL A   1      44.307 -17.424 -33.793  0.00  0.00    +0.039 C 
BRANCH   5   6
ATOM      6  C   UNL A   1      42.964 -17.355 -34.507  0.00  0.00    +0.020 C 
BRANCH   6   9
ATOM      7  C   UNL A   1      41.938 -19.003 -36.030  0.00  0.00    +0.246 C 
ATOM      8  O   UNL A   1      40.958 -19.156 -35.309  0.00  0.00    -0.270 OA
ATOM      9  N   UNL A   1      42.976 -18.143 -35.729  0.00  0.00    -0.311 N 
ATOM     10  H   UNL A   1      43.735 -18.063 -36.350  0.00  0.00    +0.000 HD
BRANCH   7  16
ATOM     11  C   UNL A   1      41.108 -19.611 -38.322  0.00  0.00    +0.044 A 
ATOM     12  C   UNL A   1      41.290 -20.336 -39.509  0.00  0.00    -0.040 A 
ATOM     13  C   UNL A   1      42.380 -21.197 -39.676  0.00  0.00    -0.060 A 
ATOM     14  C   UNL A   1      43.315 -21.348 -38.656  0.00  0.00    -0.061 A 
ATOM     15  C   UNL A   1      43.162 -20.639 -37.466  0.00  0.00    -0.048 A 
ATOM     16  C   UNL A   1      42.063 -19.780 -37.294  0.00  0.00    +0.058 A 
BRANCH  11  17
ATOM     17  N   UNL A   1      39.986 -18.773 -38.141  0.00  0.00    -0.314 N 
ATOM     18  H   UNL A   1      39.574 -18.849 -37.249  0.00  0.00    +0.000 HD
BRANCH  17  24
ATOM     19  C   UNL A   1      39.827 -14.262 -40.314  0.00  0.00    -0.039 C 
ATOM     20  C   UNL A   1      39.275 -15.640 -40.067  0.00  0.00    -0.046 A 
ATOM     21  C   UNL A   1      38.083 -16.004 -40.709  0.00  0.00    -0.058 A 
ATOM     22  C   UNL A   1      37.523 -17.259 -40.504  0.00  0.00    -0.060 A 
ATOM     23  C   UNL A   1      38.144 -18.166 -39.649  0.00  0.00    -0.040 A 
ATOM     24  C   UNL A   1      39.339 -17.845 -38.987  0.00  0.00    +0.035 A 
ATOM     25  C   UNL A   1      39.927 -16.574 -39.223  0.00  0.00    -0.026 A 
ATOM     26  C   UNL A   1      41.220 -16.208 -38.529  0.00  0.00    -0.038 C 
ENDBRANCH  17  24
ENDBRANCH  11  17
ENDBRANCH   7  16
ENDBRANCH   6   9
ENDBRANCH   5   6
ENDBRANCH   1   5
BRANCH   3  27
ATOM     27  C   UNL A   1      47.590 -18.556 -35.306  0.00  0.00    +0.013 C 
BRANCH  27  28
ATOM     28  C   UNL A   1      47.530 -19.927 -35.977  0.00  0.00    -0.022 C 
BRANCH  28  29
ATOM     29  C   UNL A   1      46.608 -19.949 -37.198  0.00  0.00    +0.011 C 
BRANCH  29  30
ATOM     30  N   UNL A   1      47.315 -19.605 -38.448  0.00  0.00    -0.343 N 
ATOM     31  H   UNL A   1      48.263 -19.339 -38.452  0.00  0.00    +0.000 HD
BRANCH  30  32
ATOM     32  C   UNL A   1      46.554 -19.678 -39.643  0.00  0.00    +0.041 A 
ATOM     33  C   UNL A   1      46.544 -20.870 -40.402  0.00  0.00    -0.005 A 
ATOM     34  C   UNL A   1      45.715 -20.919 -41.527  0.00  0.00    +0.047 A 
ATOM     35  N   UNL A   1      44.895 -19.905 -41.889  0.00  0.00    -0.251 NA
ATOM     36  C   UNL A   1      44.918 -18.767 -41.187  0.00  0.00    +0.074 A 
ATOM     37  C   UNL A   1      44.094 -17.735 -41.611  0.00  0.00    -0.017 A 
ATOM     38  C   UNL A   1      44.085 -16.502 -40.962  0.00  0.00    +0.043 A 
ATOM     39 CL   UNL A   1      43.049 -15.248 -41.520  0.00  0.00    -0.083 Cl
ATOM     40  C   UNL A   1      44.920 -16.278 -39.879  0.00  0.00    -0.043 A 
ATOM     41  C   UNL A   1      45.750 -17.308 -39.439  0.00  0.00    -0.049 A 
ATOM     42  C   UNL A   1      45.745 -18.582 -40.061  0.00  0.00    +0.022 A 
ATOM     43  C   UNL A   1      45.624 -22.144 -42.399  0.00  0.00    -0.010 C 
ATOM     44  C   UNL A   1      46.834 -23.059 -42.273  0.00  0.00    -0.047 C 
ATOM     45  C   UNL A   1      47.115 -23.332 -40.805  0.00  0.00    -0.049 C 
ATOM     46  C   UNL A   1      47.449 -22.034 -40.071  0.00  0.00    -0.024 C 
ENDBRANCH  30  32
ENDBRANCH  29  30
ENDBRANCH  28  29
ENDBRANCH  27  28
ENDBRANCH   3  27
TORSDOF 11
ENDMDL
MODEL 9
REMARK VINA RESULT:    -6.376     19.730     22.783
REMARK INTER + INTRA:         -16.043
REMARK INTER:                 -10.543
REMARK INTRA:                  -5.500
REMARK UNBOUND:                -5.567
REMARK  Name = cpd46.pdb
REMARK  13 active torsions:
REMARK  status: ('A' for Active; 'I' for Inactive)
REMARK    1  A    between atoms: C_1  and  C_2
REMARK    2  A    between atoms: C_6  and  N_7
REMARK    3  A    between atoms: N_7  and  C_8
REMARK    4  A    between atoms: C_13  and  C_14
REMARK    5  A    between atoms: N_16  and  C_17
REMARK    6  A    between atoms: C_17  and  C_18
REMARK    7  A    between atoms: C_18  and  C_19
REMARK    8  A    between atoms: N_21  and  C_22
REMARK    9  A    between atoms: C_22  and  C_23
REMARK   10  A    between atoms: C_23  and  C_24
REMARK   11  A    between atoms: C_24  and  N_25
REMARK   12  A    between atoms: N_25  and  C_26
REMARK   13  A    between atoms: C_41  and  C_42
REMARK                            x       y       z     vdW  Elec       q    Type
REMARK                         _______ _______ _______ _____ _____    ______ ____
ROOT
ATOM      1  C   UNL A   1      40.241 -14.635 -39.596  0.00  0.00    +0.215 C 
ATOM      2  O   UNL A   1      40.558 -13.887 -38.679  0.00  0.00    -0.276 OA
ATOM      3  N   UNL A   1      41.043 -14.873 -40.692  0.00  0.00    -0.315 N 
ATOM      4  H   UNL A   1      40.780 -15.576 -41.328  0.00  0.00    +0.000 HD
ENDROOT
BRANCH   1   5
ATOM      5  C   UNL A   1      38.933 -15.393 -39.652  0.00  0.00    +0.039 C 
BRANCH   5   6
ATOM      6  C   UNL A   1      38.872 -16.488 -38.596  0.00  0.00    +0.020 C 
BRANCH   6   9
ATOM      7  C   UNL A   1      40.070 -18.593 -38.128  0.00  0.00    +0.246 C 
ATOM      8  O   UNL A   1      39.972 -18.455 -36.913  0.00  0.00    -0.270 OA
ATOM      9  N   UNL A   1      39.565 -17.687 -39.039  0.00  0.00    -0.311 N 
ATOM     10  H   UNL A   1      39.675 -17.855 -40.002  0.00  0.00    +0.000 HD
BRANCH   7  16
ATOM     11  C   UNL A   1      42.188 -19.872 -38.564  0.00  0.00    +0.044 A 
ATOM     12  C   UNL A   1      42.810 -21.022 -39.074  0.00  0.00    -0.040 A 
ATOM     13  C   UNL A   1      42.070 -22.040 -39.683  0.00  0.00    -0.060 A 
ATOM     14  C   UNL A   1      40.687 -21.930 -39.793  0.00  0.00    -0.061 A 
ATOM     15  C   UNL A   1      40.040 -20.801 -39.294  0.00  0.00    -0.048 A 
ATOM     16  C   UNL A   1      40.783 -19.773 -38.688  0.00  0.00    +0.058 A 
BRANCH  11  17
ATOM     17  N   UNL A   1      42.941 -18.828 -37.984  0.00  0.00    -0.314 N 
ATOM     18  H   UNL A   1      43.051 -18.045 -38.572  0.00  0.00    +0.000 HD
BRANCH  17  24
ATOM     19  C   UNL A   1      44.198 -15.975 -34.063  0.00  0.00    -0.039 C 
ATOM     20  C   UNL A   1      44.165 -17.289 -34.795  0.00  0.00    -0.046 A 
ATOM     21  C   UNL A   1      44.772 -18.402 -34.196  0.00  0.00    -0.058 A 
ATOM     22  C   UNL A   1      44.782 -19.634 -34.837  0.00  0.00    -0.060 A 
ATOM     23  C   UNL A   1      44.189 -19.770 -36.090  0.00  0.00    -0.040 A 
ATOM     24  C   UNL A   1      43.568 -18.686 -36.726  0.00  0.00    +0.035 A 
ATOM     25  C   UNL A   1      43.530 -17.434 -36.055  0.00  0.00    -0.026 A 
ATOM     26  C   UNL A   1      42.858 -16.252 -36.716  0.00  0.00    -0.038 C 
ENDBRANCH  17  24
ENDBRANCH  11  17
ENDBRANCH   7  16
ENDBRANCH   6   9
ENDBRANCH   5   6
ENDBRANCH   1   5
BRANCH   3  27
ATOM     27  C   UNL A   1      42.261 -14.126 -40.944  0.00  0.00    +0.013 C 
BRANCH  27  28
ATOM     28  C   UNL A   1      43.506 -14.735 -40.300  0.00  0.00    -0.022 C 
BRANCH  28  29
ATOM     29  C   UNL A   1      43.621 -16.241 -40.546  0.00  0.00    +0.011 C 
BRANCH  29  30
ATOM     30  N   UNL A   1      44.979 -16.645 -40.961  0.00  0.00    -0.343 N 
ATOM     31  H   UNL A   1      45.510 -16.108 -41.594  0.00  0.00    +0.000 HD
BRANCH  30  32
ATOM     32  C   UNL A   1      45.478 -17.848 -40.399  0.00  0.00    +0.041 A 
ATOM     33  C   UNL A   1      45.352 -19.064 -41.109  0.00  0.00    -0.005 A 
ATOM     34  C   UNL A   1      45.931 -20.208 -40.549  0.00  0.00    +0.047 A 
ATOM     35  N   UNL A   1      46.641 -20.192 -39.397  0.00  0.00    -0.251 NA
ATOM     36  C   UNL A   1      46.743 -19.049 -38.712  0.00  0.00    +0.074 A 
ATOM     37  C   UNL A   1      47.443 -19.079 -37.515  0.00  0.00    -0.017 A 
ATOM     38  C   UNL A   1      47.564 -17.943 -36.717  0.00  0.00    +0.043 A 
ATOM     39 CL   UNL A   1      48.440 -18.024 -35.239  0.00  0.00    -0.083 Cl
ATOM     40  C   UNL A   1      46.967 -16.754 -37.102  0.00  0.00    -0.043 A 
ATOM     41  C   UNL A   1      46.264 -16.708 -38.306  0.00  0.00    -0.049 A 
ATOM     42  C   UNL A   1      46.163 -17.841 -39.150  0.00  0.00    +0.022 A 
ATOM     43  C   UNL A   1      45.862 -21.551 -41.228  0.00  0.00    -0.010 C 
ATOM     44  C   UNL A   1      44.720 -21.657 -42.230  0.00  0.00    -0.047 C 
ATOM     45  C   UNL A   1      44.754 -20.462 -43.168  0.00  0.00    -0.049 C 
ATOM     46  C   UNL A   1      44.556 -19.162 -42.390  0.00  0.00    -0.024 C 
ENDBRANCH  30  32
ENDBRANCH  29  30
ENDBRANCH  28  29
ENDBRANCH  27  28
ENDBRANCH   3  27
TORSDOF 11
ENDMDL
MODEL 10
REMARK VINA RESULT:    -6.338     18.460     22.029
REMARK INTER + INTRA:         -15.980
REMARK INTER:                 -11.484
REMARK INTRA:                  -4.497
REMARK UNBOUND:                -5.567
REMARK  Name = cpd46.pdb
REMARK  13 active torsions:
REMARK  status: ('A' for Active; 'I' for Inactive)
REMARK    1  A    between atoms: C_1  and  C_2
REMARK    2  A    between atoms: C_6  and  N_7
REMARK    3  A    between atoms: N_7  and  C_8
REMARK    4  A    between atoms: C_13  and  C_14
REMARK    5  A    between atoms: N_16  and  C_17
REMARK    6  A    between atoms: C_17  and  C_18
REMARK    7  A    between atoms: C_18  and  C_19
REMARK    8  A    between atoms: N_21  and  C_22
REMARK    9  A    between atoms: C_22  and  C_23
REMARK   10  A    between atoms: C_23  and  C_24
REMARK   11  A    between atoms: C_24  and  N_25
REMARK   12  A    between atoms: N_25  and  C_26
REMARK   13  A    between atoms: C_41  and  C_42
REMARK                            x       y       z     vdW  Elec       q    Type
REMARK                         _______ _______ _______ _____ _____    ______ ____
ROOT
ATOM      1  C   UNL A   1      43.748 -15.595 -39.265  0.00  0.00    +0.215 C 
ATOM      2  O   UNL A   1      43.826 -14.826 -38.315  0.00  0.00    -0.276 OA
ATOM      3  N   UNL A   1      44.838 -15.989 -40.013  0.00  0.00    -0.315 N 
ATOM      4  H   UNL A   1      44.720 -16.701 -40.683  0.00  0.00    +0.000 HD
ENDROOT
BRANCH   1   5
ATOM      5  C   UNL A   1      42.453 -16.211 -39.748  0.00  0.00    +0.039 C 
BRANCH   5   6
ATOM      6  C   UNL A   1      42.128 -17.497 -39.000  0.00  0.00    +0.020 C 
BRANCH   6   9
ATOM      7  C   UNL A   1      42.176 -17.275 -36.543  0.00  0.00    +0.246 C 
ATOM      8  O   UNL A   1      40.991 -16.964 -36.483  0.00  0.00    -0.270 OA
ATOM      9  N   UNL A   1      42.829 -17.557 -37.727  0.00  0.00    -0.311 N 
ATOM     10  H   UNL A   1      43.782 -17.802 -37.709  0.00  0.00    +0.000 HD
BRANCH   7  16
ATOM     11  C   UNL A   1      42.582 -18.168 -34.230  0.00  0.00    +0.044 A 
ATOM     12  C   UNL A   1      43.406 -18.229 -33.097  0.00  0.00    -0.040 A 
ATOM     13  C   UNL A   1      44.597 -17.500 -33.023  0.00  0.00    -0.060 A 
ATOM     14  C   UNL A   1      44.991 -16.695 -34.088  0.00  0.00    -0.061 A 
ATOM     15  C   UNL A   1      44.195 -16.617 -35.229  0.00  0.00    -0.048 A 
ATOM     16  C   UNL A   1      42.994 -17.342 -35.301  0.00  0.00    +0.058 A 
BRANCH  11  17
ATOM     17  N   UNL A   1      41.360 -18.875 -34.287  0.00  0.00    -0.314 N 
ATOM     18  H   UNL A   1      40.581 -18.304 -34.480  0.00  0.00    +0.000 HD
BRANCH  17  24
ATOM     19  C   UNL A   1      39.378 -23.112 -36.080  0.00  0.00    -0.039 C 
ATOM     20  C   UNL A   1      40.082 -22.321 -35.011  0.00  0.00    -0.046 A 
ATOM     21  C   UNL A   1      40.429 -22.973 -33.819  0.00  0.00    -0.058 A 
ATOM     22  C   UNL A   1      41.066 -22.285 -32.795  0.00  0.00    -0.060 A 
ATOM     23  C   UNL A   1      41.362 -20.932 -32.945  0.00  0.00    -0.040 A 
ATOM     24  C   UNL A   1      41.036 -20.240 -34.121  0.00  0.00    +0.035 A 
ATOM     25  C   UNL A   1      40.413 -20.952 -35.180  0.00  0.00    -0.026 A 
ATOM     26  C   UNL A   1      40.061 -20.231 -36.460  0.00  0.00    -0.038 C 
ENDBRANCH  17  24
ENDBRANCH  11  17
ENDBRANCH   7  16
ENDBRANCH   6   9
ENDBRANCH   5   6
ENDBRANCH   1   5
BRANCH   3  27
ATOM     27  C   UNL A   1      46.151 -15.395 -39.850  0.00  0.00    +0.013 C 
BRANCH  27  28
ATOM     28  C   UNL A   1      47.304 -16.379 -40.042  0.00  0.00    -0.022 C 
BRANCH  28  29
ATOM     29  C   UNL A   1      46.909 -17.596 -40.881  0.00  0.00    +0.011 C 
BRANCH  29  30
ATOM     30  N   UNL A   1      47.294 -18.872 -40.244  0.00  0.00    -0.343 N 
ATOM     31  H   UNL A   1      48.199 -19.248 -40.339  0.00  0.00    +0.000 HD
BRANCH  30  32
ATOM     32  C   UNL A   1      46.288 -19.526 -39.487  0.00  0.00    +0.041 A 
ATOM     33  C   UNL A   1      46.352 -19.522 -38.075  0.00  0.00    -0.005 A 
ATOM     34  C   UNL A   1      45.295 -20.110 -37.373  0.00  0.00    +0.047 A 
ATOM     35  N   UNL A   1      44.203 -20.634 -37.978  0.00  0.00    -0.251 NA
ATOM     36  C   UNL A   1      44.149 -20.660 -39.313  0.00  0.00    +0.074 A 
ATOM     37  C   UNL A   1      43.034 -21.240 -39.899  0.00  0.00    -0.017 A 
ATOM     38  C   UNL A   1      42.915 -21.346 -41.283  0.00  0.00    +0.043 A 
ATOM     39 CL   UNL A   1      41.515 -22.073 -41.969  0.00  0.00    -0.083 Cl
ATOM     40  C   UNL A   1      43.927 -20.882 -42.108  0.00  0.00    -0.043 A 
ATOM     41  C   UNL A   1      45.051 -20.292 -41.533  0.00  0.00    -0.049 A 
ATOM     42  C   UNL A   1      45.174 -20.139 -40.129  0.00  0.00    +0.022 A 
ATOM     43  C   UNL A   1      45.261 -20.151 -35.867  0.00  0.00    -0.010 C 
ATOM     44  C   UNL A   1      46.637 -19.998 -35.233  0.00  0.00    -0.047 C 
ATOM     45  C   UNL A   1      47.339 -18.789 -35.830  0.00  0.00    -0.049 C 
ATOM     46  C   UNL A   1      47.550 -18.976 -37.332  0.00  0.00    -0.024 C 
ENDBRANCH  30  32
ENDBRANCH  29  30
ENDBRANCH  28  29
ENDBRANCH  27  28
ENDBRANCH   3  27
TORSDOF 11
ENDMDL
MODEL 11
REMARK VINA RESULT:    -6.324     19.176     23.061
REMARK INTER + INTRA:         -15.958
REMARK INTER:                 -10.188
REMARK INTRA:                  -5.770
REMARK UNBOUND:                -5.567
REMARK  Name = cpd46.pdb
REMARK  13 active torsions:
REMARK  status: ('A' for Active; 'I' for Inactive)
REMARK    1  A    between atoms: C_1  and  C_2
REMARK    2  A    between atoms: C_6  and  N_7
REMARK    3  A    between atoms: N_7  and  C_8
REMARK    4  A    between atoms: C_13  and  C_14
REMARK    5  A    between atoms: N_16  and  C_17
REMARK    6  A    between atoms: C_17  and  C_18
REMARK    7  A    between atoms: C_18  and  C_19
REMARK    8  A    between atoms: N_21  and  C_22
REMARK    9  A    between atoms: C_22  and  C_23
REMARK   10  A    between atoms: C_23  and  C_24
REMARK   11  A    between atoms: C_24  and  N_25
REMARK   12  A    between atoms: N_25  and  C_26
REMARK   13  A    between atoms: C_41  and  C_42
REMARK                            x       y       z     vdW  Elec       q    Type
REMARK                         _______ _______ _______ _____ _____    ______ ____
ROOT
ATOM      1  C   UNL A   1      41.048 -20.828 -35.818  0.00  0.00    +0.215 C 
ATOM      2  O   UNL A   1      41.068 -19.671 -36.221  0.00  0.00    -0.276 OA
ATOM      3  N   UNL A   1      40.774 -21.909 -36.631  0.00  0.00    -0.315 N 
ATOM      4  H   UNL A   1      40.894 -22.816 -36.268  0.00  0.00    +0.000 HD
ENDROOT
BRANCH   1   5
ATOM      5  C   UNL A   1      41.316 -21.227 -34.384  0.00  0.00    +0.039 C 
BRANCH   5   6
ATOM      6  C   UNL A   1      42.528 -20.502 -33.816  0.00  0.00    +0.020 C 
BRANCH   6   9
ATOM      7  C   UNL A   1      44.641 -19.477 -34.572  0.00  0.00    +0.246 C 
ATOM      8  O   UNL A   1      44.938 -19.100 -33.443  0.00  0.00    -0.270 OA
ATOM      9  N   UNL A   1      43.484 -20.173 -34.861  0.00  0.00    -0.311 N 
ATOM     10  H   UNL A   1      43.303 -20.449 -35.788  0.00  0.00    +0.000 HD
BRANCH   7  16
ATOM     11  C   UNL A   1      45.791 -17.827 -36.077  0.00  0.00    +0.044 A 
ATOM     12  C   UNL A   1      46.673 -17.589 -37.141  0.00  0.00    -0.040 A 
ATOM     13  C   UNL A   1      47.287 -18.642 -37.828  0.00  0.00    -0.060 A 
ATOM     14  C   UNL A   1      47.030 -19.960 -37.461  0.00  0.00    -0.061 A 
ATOM     15  C   UNL A   1      46.161 -20.228 -36.406  0.00  0.00    -0.048 A 
ATOM     16  C   UNL A   1      45.538 -19.171 -35.720  0.00  0.00    +0.058 A 
BRANCH  11  17
ATOM     17  N   UNL A   1      45.144 -16.764 -35.410  0.00  0.00    -0.314 N 
ATOM     18  H   UNL A   1      45.589 -16.490 -34.576  0.00  0.00    +0.000 HD
BRANCH  17  24
ATOM     19  C   UNL A   1      43.002 -12.560 -37.092  0.00  0.00    -0.039 C 
ATOM     20  C   UNL A   1      42.935 -13.961 -36.549  0.00  0.00    -0.046 A 
ATOM     21  C   UNL A   1      41.673 -14.535 -36.341  0.00  0.00    -0.058 A 
ATOM     22  C   UNL A   1      41.555 -15.820 -35.827  0.00  0.00    -0.060 A 
ATOM     23  C   UNL A   1      42.699 -16.549 -35.510  0.00  0.00    -0.040 A 
ATOM     24  C   UNL A   1      43.981 -16.016 -35.705  0.00  0.00    +0.035 A 
ATOM     25  C   UNL A   1      44.101 -14.715 -36.259  0.00  0.00    -0.026 A 
ATOM     26  C   UNL A   1      45.473 -14.122 -36.488  0.00  0.00    -0.038 C 
ENDBRANCH  17  24
ENDBRANCH  11  17
ENDBRANCH   7  16
ENDBRANCH   6   9
ENDBRANCH   5   6
ENDBRANCH   1   5
BRANCH   3  27
ATOM     27  C   UNL A   1      40.316 -21.760 -37.999  0.00  0.00    +0.013 C 
BRANCH  27  28
ATOM     28  C   UNL A   1      41.288 -22.309 -39.042  0.00  0.00    -0.022 C 
BRANCH  28  29
ATOM     29  C   UNL A   1      42.070 -21.206 -39.758  0.00  0.00    +0.011 C 
BRANCH  29  30
ATOM     30  N   UNL A   1      43.245 -20.753 -38.987  0.00  0.00    -0.343 N 
ATOM     31  H   UNL A   1      43.360 -20.977 -38.035  0.00  0.00    +0.000 HD
BRANCH  30  32
ATOM     32  C   UNL A   1      44.200 -19.977 -39.693  0.00  0.00    +0.041 A 
ATOM     33  C   UNL A   1      45.282 -20.610 -40.347  0.00  0.00    -0.005 A 
ATOM     34  C   UNL A   1      46.149 -19.809 -41.096  0.00  0.00    +0.047 A 
ATOM     35  N   UNL A   1      45.974 -18.477 -41.260  0.00  0.00    -0.251 NA
ATOM     36  C   UNL A   1      44.966 -17.871 -40.625  0.00  0.00    +0.074 A 
ATOM     37  C   UNL A   1      44.841 -16.499 -40.784  0.00  0.00    -0.017 A 
ATOM     38  C   UNL A   1      43.844 -15.781 -40.127  0.00  0.00    +0.043 A 
ATOM     39 CL   UNL A   1      43.723 -14.080 -40.351  0.00  0.00    -0.083 Cl
ATOM     40  C   UNL A   1      42.959 -16.431 -39.281  0.00  0.00    -0.043 A 
ATOM     41  C   UNL A   1      43.071 -17.810 -39.115  0.00  0.00    -0.049 A 
ATOM     42  C   UNL A   1      44.053 -18.564 -39.805  0.00  0.00    +0.022 A 
ATOM     43  C   UNL A   1      47.327 -20.386 -41.838  0.00  0.00    -0.010 C 
ATOM     44  C   UNL A   1      47.775 -21.735 -41.295  0.00  0.00    -0.047 C 
ATOM     45  C   UNL A   1      46.573 -22.659 -41.175  0.00  0.00    -0.049 C 
ATOM     46  C   UNL A   1      45.553 -22.089 -40.190  0.00  0.00    -0.024 C 
ENDBRANCH  30  32
ENDBRANCH  29  30
ENDBRANCH  28  29
ENDBRANCH  27  28
ENDBRANCH   3  27
TORSDOF 11
ENDMDL
MODEL 12
REMARK VINA RESULT:    -6.319     18.332     21.922
REMARK INTER + INTRA:         -15.950
REMARK INTER:                 -11.439
REMARK INTRA:                  -4.511
REMARK UNBOUND:                -5.567
REMARK  Name = cpd46.pdb
REMARK  13 active torsions:
REMARK  status: ('A' for Active; 'I' for Inactive)
REMARK    1  A    between atoms: C_1  and  C_2
REMARK    2  A    between atoms: C_6  and  N_7
REMARK    3  A    between atoms: N_7  and  C_8
REMARK    4  A    between atoms: C_13  and  C_14
REMARK    5  A    between atoms: N_16  and  C_17
REMARK    6  A    between atoms: C_17  and  C_18
REMARK    7  A    between atoms: C_18  and  C_19
REMARK    8  A    between atoms: N_21  and  C_22
REMARK    9  A    between atoms: C_22  and  C_23
REMARK   10  A    between atoms: C_23  and  C_24
REMARK   11  A    between atoms: C_24  and  N_25
REMARK   12  A    between atoms: N_25  and  C_26
REMARK   13  A    between atoms: C_41  and  C_42
REMARK                            x       y       z     vdW  Elec       q    Type
REMARK                         _______ _______ _______ _____ _____    ______ ____
ROOT
ATOM      1  C   UNL A   1      42.456 -15.622 -39.841  0.00  0.00    +0.215 C 
ATOM      2  O   UNL A   1      42.198 -14.464 -39.538  0.00  0.00    -0.276 OA
ATOM      3  N   UNL A   1      41.615 -16.682 -39.571  0.00  0.00    -0.315 N 
ATOM      4  H   UNL A   1      41.829 -17.564 -39.950  0.00  0.00    +0.000 HD
ENDROOT
BRANCH   1   5
ATOM      5  C   UNL A   1      43.725 -16.048 -40.547  0.00  0.00    +0.039 C 
BRANCH   5   6
ATOM      6  C   UNL A   1      43.443 -17.051 -41.657  0.00  0.00    +0.020 C 
BRANCH   6   9
ATOM      7  C   UNL A   1      43.980 -19.295 -40.784  0.00  0.00    +0.246 C 
ATOM      8  O   UNL A   1      42.938 -19.366 -40.140  0.00  0.00    -0.270 OA
ATOM      9  N   UNL A   1      44.322 -18.205 -41.560  0.00  0.00    -0.311 N 
ATOM     10  H   UNL A   1      45.173 -18.209 -42.054  0.00  0.00    +0.000 HD
BRANCH   7  16
ATOM     11  C   UNL A   1      45.574 -20.761 -39.509  0.00  0.00    +0.044 A 
ATOM     12  C   UNL A   1      46.464 -21.845 -39.507  0.00  0.00    -0.040 A 
ATOM     13  C   UNL A   1      46.741 -22.561 -40.675  0.00  0.00    -0.060 A 
ATOM     14  C   UNL A   1      46.129 -22.208 -41.874  0.00  0.00    -0.061 A 
ATOM     15  C   UNL A   1      45.237 -21.137 -41.907  0.00  0.00    -0.048 A 
ATOM     16  C   UNL A   1      44.964 -20.411 -40.735  0.00  0.00    +0.058 A 
BRANCH  11  17
ATOM     17  N   UNL A   1      45.325 -20.014 -38.336  0.00  0.00    -0.314 N 
ATOM     18  H   UNL A   1      44.519 -20.301 -37.848  0.00  0.00    +0.000 HD
BRANCH  17  24
ATOM     19  C   UNL A   1      47.868 -18.133 -34.451  0.00  0.00    -0.039 C 
ATOM     20  C   UNL A   1      47.269 -18.024 -35.827  0.00  0.00    -0.046 A 
ATOM     21  C   UNL A   1      47.405 -16.812 -36.518  0.00  0.00    -0.058 A 
ATOM     22  C   UNL A   1      46.858 -16.654 -37.785  0.00  0.00    -0.060 A 
ATOM     23  C   UNL A   1      46.163 -17.706 -38.378  0.00  0.00    -0.040 A 
ATOM     24  C   UNL A   1      46.005 -18.937 -37.725  0.00  0.00    +0.035 A 
ATOM     25  C   UNL A   1      46.592 -19.107 -36.443  0.00  0.00    -0.026 A 
ATOM     26  C   UNL A   1      46.444 -20.428 -35.722  0.00  0.00    -0.038 C 
ENDBRANCH  17  24
ENDBRANCH  11  17
ENDBRANCH   7  16
ENDBRANCH   6   9
ENDBRANCH   5   6
ENDBRANCH   1   5
BRANCH   3  27
ATOM     27  C   UNL A   1      40.428 -16.544 -38.750  0.00  0.00    +0.013 C 
BRANCH  27  28
ATOM     28  C   UNL A   1      40.450 -17.395 -37.480  0.00  0.00    -0.022 C 
BRANCH  28  29
ATOM     29  C   UNL A   1      40.458 -18.896 -37.776  0.00  0.00    +0.011 C 
BRANCH  29  30
ATOM     30  N   UNL A   1      41.678 -19.564 -37.277  0.00  0.00    -0.343 N 
ATOM     31  H   UNL A   1      42.420 -19.804 -37.877  0.00  0.00    +0.000 HD
BRANCH  30  32
ATOM     32  C   UNL A   1      41.720 -19.841 -35.887  0.00  0.00    +0.041 A 
ATOM     33  C   UNL A   1      40.970 -20.915 -35.357  0.00  0.00    -0.005 A 
ATOM     34  C   UNL A   1      41.109 -21.198 -33.994  0.00  0.00    +0.047 A 
ATOM     35  N   UNL A   1      41.957 -20.527 -33.180  0.00  0.00    -0.251 NA
ATOM     36  C   UNL A   1      42.652 -19.496 -33.672  0.00  0.00    +0.074 A 
ATOM     37  C   UNL A   1      43.480 -18.806 -32.800  0.00  0.00    -0.017 A 
ATOM     38  C   UNL A   1      44.209 -17.695 -33.218  0.00  0.00    +0.043 A 
ATOM     39 CL   UNL A   1      45.225 -16.868 -32.104  0.00  0.00    -0.083 Cl
ATOM     40  C   UNL A   1      44.106 -17.245 -34.525  0.00  0.00    -0.043 A 
ATOM     41  C   UNL A   1      43.280 -17.931 -35.414  0.00  0.00    -0.049 A 
ATOM     42  C   UNL A   1      42.561 -19.087 -35.018  0.00  0.00    +0.022 A 
ATOM     43  C   UNL A   1      40.361 -22.326 -33.332  0.00  0.00    -0.010 C 
ATOM     44  C   UNL A   1      39.118 -22.751 -34.101  0.00  0.00    -0.047 C 
ATOM     45  C   UNL A   1      39.477 -22.984 -35.559  0.00  0.00    -0.049 C 
ATOM     46  C   UNL A   1      39.986 -21.694 -36.200  0.00  0.00    -0.024 C 
ENDBRANCH  30  32
ENDBRANCH  29  30
ENDBRANCH  28  29
ENDBRANCH  27  28
ENDBRANCH   3  27
TORSDOF 11
ENDMDL
MODEL 13
REMARK VINA RESULT:    -6.278     18.318     22.074
REMARK INTER + INTRA:         -15.882
REMARK INTER:                 -11.711
REMARK INTRA:                  -4.171
REMARK UNBOUND:                -5.567
REMARK  Name = cpd46.pdb
REMARK  13 active torsions:
REMARK  status: ('A' for Active; 'I' for Inactive)
REMARK    1  A    between atoms: C_1  and  C_2
REMARK    2  A    between atoms: C_6  and  N_7
REMARK    3  A    between atoms: N_7  and  C_8
REMARK    4  A    between atoms: C_13  and  C_14
REMARK    5  A    between atoms: N_16  and  C_17
REMARK    6  A    between atoms: C_17  and  C_18
REMARK    7  A    between atoms: C_18  and  C_19
REMARK    8  A    between atoms: N_21  and  C_22
REMARK    9  A    between atoms: C_22  and  C_23
REMARK   10  A    between atoms: C_23  and  C_24
REMARK   11  A    between atoms: C_24  and  N_25
REMARK   12  A    between atoms: N_25  and  C_26
REMARK   13  A    between atoms: C_41  and  C_42
REMARK                            x       y       z     vdW  Elec       q    Type
REMARK                         _______ _______ _______ _____ _____    ______ ____
ROOT
ATOM      1  C   UNL A   1      40.742 -17.704 -37.606  0.00  0.00    +0.215 C 
ATOM      2  O   UNL A   1      39.640 -18.136 -37.292  0.00  0.00    -0.276 OA
ATOM      3  N   UNL A   1      41.701 -17.332 -36.687  0.00  0.00    -0.315 N 
ATOM      4  H   UNL A   1      42.605 -17.110 -37.009  0.00  0.00    +0.000 HD
ENDROOT
BRANCH   1   5
ATOM      5  C   UNL A   1      41.199 -17.518 -39.037  0.00  0.00    +0.039 C 
BRANCH   5   6
ATOM      6  C   UNL A   1      41.634 -16.084 -39.307  0.00  0.00    +0.020 C 
BRANCH   6   9
ATOM      7  C   UNL A   1      44.097 -16.160 -39.195  0.00  0.00    +0.246 C 
ATOM      8  O   UNL A   1      44.103 -16.309 -37.977  0.00  0.00    -0.270 OA
ATOM      9  N   UNL A   1      42.941 -16.040 -39.941  0.00  0.00    -0.311 N 
ATOM     10  H   UNL A   1      43.004 -15.924 -40.916  0.00  0.00    +0.000 HD
BRANCH   7  16
ATOM     11  C   UNL A   1      46.161 -17.240 -40.137  0.00  0.00    +0.044 A 
ATOM     12  C   UNL A   1      47.344 -17.118 -40.880  0.00  0.00    -0.040 A 
ATOM     13  C   UNL A   1      47.744 -15.890 -41.415  0.00  0.00    -0.060 A 
ATOM     14  C   UNL A   1      46.965 -14.754 -41.217  0.00  0.00    -0.061 A 
ATOM     15  C   UNL A   1      45.782 -14.844 -40.486  0.00  0.00    -0.048 A 
ATOM     16  C   UNL A   1      45.382 -16.077 -39.941  0.00  0.00    +0.058 A 
BRANCH  11  17
ATOM     17  N   UNL A   1      45.778 -18.474 -39.565  0.00  0.00    -0.314 N 
ATOM     18  H   UNL A   1      45.278 -18.382 -38.722  0.00  0.00    +0.000 HD
BRANCH  17  24
ATOM     19  C   UNL A   1      45.024 -22.162 -42.871  0.00  0.00    -0.039 C 
ATOM     20  C   UNL A   1      45.616 -21.615 -41.600  0.00  0.00    -0.046 A 
ATOM     21  C   UNL A   1      46.388 -22.472 -40.802  0.00  0.00    -0.058 A 
ATOM     22  C   UNL A   1      46.944 -22.021 -39.612  0.00  0.00    -0.060 A 
ATOM     23  C   UNL A   1      46.733 -20.707 -39.200  0.00  0.00    -0.040 A 
ATOM     24  C   UNL A   1      45.971 -19.815 -39.967  0.00  0.00    +0.035 A 
ATOM     25  C   UNL A   1      45.429 -20.268 -41.200  0.00  0.00    -0.026 A 
ATOM     26  C   UNL A   1      44.611 -19.322 -42.050  0.00  0.00    -0.038 C 
ENDBRANCH  17  24
ENDBRANCH  11  17
ENDBRANCH   7  16
ENDBRANCH   6   9
ENDBRANCH   5   6
ENDBRANCH   1   5
BRANCH   3  27
ATOM     27  C   UNL A   1      41.430 -17.257 -35.265  0.00  0.00    +0.013 C 
BRANCH  27  28
ATOM     28  C   UNL A   1      42.513 -17.888 -34.392  0.00  0.00    -0.022 C 
BRANCH  28  29
ATOM     29  C   UNL A   1      43.373 -18.898 -35.156  0.00  0.00    +0.011 C 
BRANCH  29  30
ATOM     30  N   UNL A   1      43.038 -20.296 -34.818  0.00  0.00    -0.343 N 
ATOM     31  H   UNL A   1      43.587 -20.825 -34.195  0.00  0.00    +0.000 HD
BRANCH  30  32
ATOM     32  C   UNL A   1      41.884 -20.836 -35.442  0.00  0.00    +0.041 A 
ATOM     33  C   UNL A   1      40.711 -21.057 -34.686  0.00  0.00    -0.005 A 
ATOM     34  C   UNL A   1      39.576 -21.514 -35.363  0.00  0.00    +0.047 A 
ATOM     35  N   UNL A   1      39.537 -21.705 -36.703  0.00  0.00    -0.251 NA
ATOM     36  C   UNL A   1      40.651 -21.518 -37.418  0.00  0.00    +0.074 A 
ATOM     37  C   UNL A   1      40.586 -21.761 -38.782  0.00  0.00    -0.017 A 
ATOM     38  C   UNL A   1      41.709 -21.631 -39.596  0.00  0.00    +0.043 A 
ATOM     39 CL   UNL A   1      41.585 -21.943 -41.283  0.00  0.00    -0.083 Cl
ATOM     40  C   UNL A   1      42.928 -21.267 -39.049  0.00  0.00    -0.043 A 
ATOM     41  C   UNL A   1      43.008 -21.014 -37.680  0.00  0.00    -0.049 A 
ATOM     42  C   UNL A   1      41.869 -21.103 -36.842  0.00  0.00    +0.022 A 
ATOM     43  C   UNL A   1      38.273 -21.773 -34.653  0.00  0.00    -0.010 C 
ATOM     44  C   UNL A   1      38.442 -22.004 -33.157  0.00  0.00    -0.047 C 
ATOM     45  C   UNL A   1      39.289 -20.889 -32.565  0.00  0.00    -0.049 C 
ATOM     46  C   UNL A   1      40.686 -20.888 -33.184  0.00  0.00    -0.024 C 
ENDBRANCH  30  32
ENDBRANCH  29  30
ENDBRANCH  28  29
ENDBRANCH  27  28
ENDBRANCH   3  27
TORSDOF 11
ENDMDL
MODEL 14
REMARK VINA RESULT:    -6.268     17.047     20.702
REMARK INTER + INTRA:         -15.865
REMARK INTER:                 -11.592
REMARK INTRA:                  -4.273
REMARK UNBOUND:                -5.567
REMARK  Name = cpd46.pdb
REMARK  13 active torsions:
REMARK  status: ('A' for Active; 'I' for Inactive)
REMARK    1  A    between atoms: C_1  and  C_2
REMARK    2  A    between atoms: C_6  and  N_7
REMARK    3  A    between atoms: N_7  and  C_8
REMARK    4  A    between atoms: C_13  and  C_14
REMARK    5  A    between atoms: N_16  and  C_17
REMARK    6  A    between atoms: C_17  and  C_18
REMARK    7  A    between atoms: C_18  and  C_19
REMARK    8  A    between atoms: N_21  and  C_22
REMARK    9  A    between atoms: C_22  and  C_23
REMARK   10  A    between atoms: C_23  and  C_24
REMARK   11  A    between atoms: C_24  and  N_25
REMARK   12  A    between atoms: N_25  and  C_26
REMARK   13  A    between atoms: C_41  and  C_42
REMARK                            x       y       z     vdW  Elec       q    Type
REMARK                         _______ _______ _______ _____ _____    ______ ____
ROOT
ATOM      1  C   UNL A   1      39.075 -19.444 -37.272  0.00  0.00    +0.215 C 
ATOM      2  O   UNL A   1      39.567 -19.474 -38.394  0.00  0.00    -0.276 OA
ATOM      3  N   UNL A   1      39.087 -20.521 -36.410  0.00  0.00    -0.315 N 
ATOM      4  H   UNL A   1      38.783 -20.388 -35.483  0.00  0.00    +0.000 HD
ENDROOT
BRANCH   1   5
ATOM      5  C   UNL A   1      38.390 -18.230 -36.684  0.00  0.00    +0.039 C 
BRANCH   5   6
ATOM      6  C   UNL A   1      39.280 -16.997 -36.743  0.00  0.00    +0.020 C 
BRANCH   6   9
ATOM      7  C   UNL A   1      40.828 -16.646 -34.854  0.00  0.00    +0.246 C 
ATOM      8  O   UNL A   1      40.044 -15.909 -34.264  0.00  0.00    -0.270 OA
ATOM      9  N   UNL A   1      40.549 -17.231 -36.074  0.00  0.00    -0.311 N 
ATOM     10  H   UNL A   1      41.220 -17.814 -36.496  0.00  0.00    +0.000 HD
BRANCH   7  16
ATOM     11  C   UNL A   1      42.284 -17.832 -33.186  0.00  0.00    +0.044 A 
ATOM     12  C   UNL A   1      43.571 -18.099 -32.695  0.00  0.00    -0.040 A 
ATOM     13  C   UNL A   1      44.703 -17.500 -33.256  0.00  0.00    -0.060 A 
ATOM     14  C   UNL A   1      44.571 -16.619 -34.326  0.00  0.00    -0.061 A 
ATOM     15  C   UNL A   1      43.306 -16.336 -34.838  0.00  0.00    -0.048 A 
ATOM     16  C   UNL A   1      42.167 -16.932 -34.270  0.00  0.00    +0.058 A 
BRANCH  11  17
ATOM     17  N   UNL A   1      41.139 -18.409 -32.593  0.00  0.00    -0.314 N 
ATOM     18  H   UNL A   1      40.660 -17.801 -31.985  0.00  0.00    +0.000 HD
BRANCH  17  24
ATOM     19  C   UNL A   1      37.046 -21.279 -32.914  0.00  0.00    -0.039 C 
ATOM     20  C   UNL A   1      38.539 -21.090 -32.880  0.00  0.00    -0.046 A 
ATOM     21  C   UNL A   1      39.356 -22.225 -32.968  0.00  0.00    -0.058 A 
ATOM     22  C   UNL A   1      40.740 -22.106 -32.926  0.00  0.00    -0.060 A 
ATOM     23  C   UNL A   1      41.326 -20.850 -32.791  0.00  0.00    -0.040 A 
ATOM     24  C   UNL A   1      40.547 -19.687 -32.703  0.00  0.00    +0.035 A 
ATOM     25  C   UNL A   1      39.134 -19.807 -32.777  0.00  0.00    -0.026 A 
ATOM     26  C   UNL A   1      38.273 -18.567 -32.693  0.00  0.00    -0.038 C 
ENDBRANCH  17  24
ENDBRANCH  11  17
ENDBRANCH   7  16
ENDBRANCH   6   9
ENDBRANCH   5   6
ENDBRANCH   1   5
BRANCH   3  27
ATOM     27  C   UNL A   1      39.530 -21.840 -36.817  0.00  0.00    +0.013 C 
BRANCH  27  28
ATOM     28  C   UNL A   1      41.029 -22.075 -36.633  0.00  0.00    -0.022 C 
BRANCH  28  29
ATOM     29  C   UNL A   1      41.786 -22.125 -37.962  0.00  0.00    +0.011 C 
BRANCH  29  30
ATOM     30  N   UNL A   1      42.301 -20.803 -38.370  0.00  0.00    -0.343 N 
ATOM     31  H   UNL A   1      41.722 -20.008 -38.404  0.00  0.00    +0.000 HD
BRANCH  30  32
ATOM     32  C   UNL A   1      43.677 -20.741 -38.711  0.00  0.00    +0.041 A 
ATOM     33  C   UNL A   1      44.080 -20.906 -40.055  0.00  0.00    -0.005 A 
ATOM     34  C   UNL A   1      45.439 -20.755 -40.351  0.00  0.00    +0.047 A 
ATOM     35  N   UNL A   1      46.367 -20.415 -39.426  0.00  0.00    -0.251 NA
ATOM     36  C   UNL A   1      45.993 -20.281 -38.150  0.00  0.00    +0.074 A 
ATOM     37  C   UNL A   1      46.978 -19.972 -37.223  0.00  0.00    -0.017 A 
ATOM     38  C   UNL A   1      46.684 -19.854 -35.866  0.00  0.00    +0.043 A 
ATOM     39 CL   UNL A   1      47.935 -19.470 -34.749  0.00  0.00    -0.083 Cl
ATOM     40  C   UNL A   1      45.392 -20.060 -35.412  0.00  0.00    -0.043 A 
ATOM     41  C   UNL A   1      44.391 -20.367 -36.333  0.00  0.00    -0.049 A 
ATOM     42  C   UNL A   1      44.662 -20.453 -37.721  0.00  0.00    +0.022 A 
ATOM     43  C   UNL A   1      45.971 -20.901 -41.753  0.00  0.00    -0.010 C 
ATOM     44  C   UNL A   1      45.053 -21.708 -42.661  0.00  0.00    -0.047 C 
ATOM     45  C   UNL A   1      43.637 -21.165 -42.563  0.00  0.00    -0.049 C 
ATOM     46  C   UNL A   1      43.104 -21.307 -41.137  0.00  0.00    -0.024 C 
ENDBRANCH  30  32
ENDBRANCH  29  30
ENDBRANCH  28  29
ENDBRANCH  27  28
ENDBRANCH   3  27
TORSDOF 11
ENDMDL
MODEL 15
REMARK VINA RESULT:    -6.129     20.740     23.860
REMARK INTER + INTRA:         -15.637
REMARK INTER:                  -9.753
REMARK INTRA:                  -5.884
REMARK UNBOUND:                -5.567
REMARK  Name = cpd46.pdb
REMARK  13 active torsions:
REMARK  status: ('A' for Active; 'I' for Inactive)
REMARK    1  A    between atoms: C_1  and  C_2
REMARK    2  A    between atoms: C_6  and  N_7
REMARK    3  A    between atoms: N_7  and  C_8
REMARK    4  A    between atoms: C_13  and  C_14
REMARK    5  A    between atoms: N_16  and  C_17
REMARK    6  A    between atoms: C_17  and  C_18
REMARK    7  A    between atoms: C_18  and  C_19
REMARK    8  A    between atoms: N_21  and  C_22
REMARK    9  A    between atoms: C_22  and  C_23
REMARK   10  A    between atoms: C_23  and  C_24
REMARK   11  A    between atoms: C_24  and  N_25
REMARK   12  A    between atoms: N_25  and  C_26
REMARK   13  A    between atoms: C_41  and  C_42
REMARK                            x       y       z     vdW  Elec       q    Type
REMARK                         _______ _______ _______ _____ _____    ______ ____
ROOT
ATOM      1  C   UNL A   1      44.772 -13.166 -37.445  0.00  0.00    +0.215 C 
ATOM      2  O   UNL A   1      45.677 -12.895 -36.665  0.00  0.00    -0.276 OA
ATOM      3  N   UNL A   1      44.988 -13.619 -38.730  0.00  0.00    -0.315 N 
ATOM      4  H   UNL A   1      44.219 -13.932 -39.258  0.00  0.00    +0.000 HD
ENDROOT
BRANCH   1   5
ATOM      5  C   UNL A   1      43.302 -13.039 -37.109  0.00  0.00    +0.039 C 
BRANCH   5   6
ATOM      6  C   UNL A   1      42.474 -12.671 -38.332  0.00  0.00    +0.020 C 
BRANCH   6   9
ATOM      7  C   UNL A   1      41.585 -14.671 -39.469  0.00  0.00    +0.246 C 
ATOM      8  O   UNL A   1      42.611 -14.837 -40.121  0.00  0.00    -0.270 OA
ATOM      9  N   UNL A   1      41.417 -13.641 -38.565  0.00  0.00    -0.311 N 
ATOM     10  H   UNL A   1      40.570 -13.563 -38.071  0.00  0.00    +0.000 HD
BRANCH   7  16
ATOM     11  C   UNL A   1      40.625 -16.991 -39.565  0.00  0.00    +0.044 A 
ATOM     12  C   UNL A   1      39.500 -17.817 -39.703  0.00  0.00    -0.040 A 
ATOM     13  C   UNL A   1      38.225 -17.282 -39.913  0.00  0.00    -0.060 A 
ATOM     14  C   UNL A   1      38.049 -15.903 -39.988  0.00  0.00    -0.061 A 
ATOM     15  C   UNL A   1      39.148 -15.056 -39.852  0.00  0.00    -0.048 A 
ATOM     16  C   UNL A   1      40.431 -15.593 -39.649  0.00  0.00    +0.058 A 
BRANCH  11  17
ATOM     17  N   UNL A   1      41.917 -17.535 -39.391  0.00  0.00    -0.314 N 
ATOM     18  H   UNL A   1      42.605 -17.108 -39.952  0.00  0.00    +0.000 HD
BRANCH  17  24
ATOM     19  C   UNL A   1      44.192 -19.019 -35.182  0.00  0.00    -0.039 C 
ATOM     20  C   UNL A   1      43.514 -19.296 -36.496  0.00  0.00    -0.046 A 
ATOM     21  C   UNL A   1      43.371 -20.630 -36.903  0.00  0.00    -0.058 A 
ATOM     22  C   UNL A   1      42.766 -20.940 -38.114  0.00  0.00    -0.060 A 
ATOM     23  C   UNL A   1      42.297 -19.919 -38.938  0.00  0.00    -0.040 A 
ATOM     24  C   UNL A   1      42.416 -18.571 -38.570  0.00  0.00    +0.035 A 
ATOM     25  C   UNL A   1      43.007 -18.257 -37.317  0.00  0.00    -0.026 A 
ATOM     26  C   UNL A   1      43.138 -16.812 -36.893  0.00  0.00    -0.038 C 
ENDBRANCH  17  24
ENDBRANCH  11  17
ENDBRANCH   7  16
ENDBRANCH   6   9
ENDBRANCH   5   6
ENDBRANCH   1   5
BRANCH   3  27
ATOM     27  C   UNL A   1      46.307 -13.652 -39.333  0.00  0.00    +0.013 C 
BRANCH  27  28
ATOM     28  C   UNL A   1      46.313 -14.126 -40.785  0.00  0.00    -0.022 C 
BRANCH  28  29
ATOM     29  C   UNL A   1      46.496 -15.641 -40.911  0.00  0.00    +0.011 C 
BRANCH  29  30
ATOM     30  N   UNL A   1      45.369 -16.398 -40.331  0.00  0.00    -0.343 N 
ATOM     31  H   UNL A   1      44.470 -16.005 -40.242  0.00  0.00    +0.000 HD
BRANCH  30  32
ATOM     32  C   UNL A   1      45.651 -17.722 -39.908  0.00  0.00    +0.041 A 
ATOM     33  C   UNL A   1      45.301 -18.816 -40.731  0.00  0.00    -0.005 A 
ATOM     34  C   UNL A   1      45.673 -20.096 -40.307  0.00  0.00    +0.047 A 
ATOM     35  N   UNL A   1      46.388 -20.326 -39.181  0.00  0.00    -0.251 NA
ATOM     36  C   UNL A   1      46.702 -19.296 -38.388  0.00  0.00    +0.074 A 
ATOM     37  C   UNL A   1      47.399 -19.573 -37.222  0.00  0.00    -0.017 A 
ATOM     38  C   UNL A   1      47.732 -18.566 -36.319  0.00  0.00    +0.043 A 
ATOM     39 CL   UNL A   1      48.598 -18.953 -34.884  0.00  0.00    -0.083 Cl
ATOM     40  C   UNL A   1      47.353 -17.256 -36.565  0.00  0.00    -0.043 A 
ATOM     41  C   UNL A   1      46.655 -16.962 -37.736  0.00  0.00    -0.049 A 
ATOM     42  C   UNL A   1      46.342 -17.966 -38.686  0.00  0.00    +0.022 A 
ATOM     43  C   UNL A   1      45.356 -21.328 -41.114  0.00  0.00    -0.010 C 
ATOM     44  C   UNL A   1      44.201 -21.126 -42.085  0.00  0.00    -0.047 C 
ATOM     45  C   UNL A   1      44.436 -19.865 -42.900  0.00  0.00    -0.049 C 
ATOM     46  C   UNL A   1      44.484 -18.638 -41.990  0.00  0.00    -0.024 C 
ENDBRANCH  30  32
ENDBRANCH  29  30
ENDBRANCH  28  29
ENDBRANCH  27  28
ENDBRANCH   3  27
TORSDOF 11
ENDMDL
MODEL 16
REMARK VINA RESULT:    -6.082     18.126     21.843
REMARK INTER + INTRA:         -15.560
REMARK INTER:                 -11.495
REMARK INTRA:                  -4.065
REMARK UNBOUND:                -5.567
REMARK  Name = cpd46.pdb
REMARK  13 active torsions:
REMARK  status: ('A' for Active; 'I' for Inactive)
REMARK    1  A    between atoms: C_1  and  C_2
REMARK    2  A    between atoms: C_6  and  N_7
REMARK    3  A    between atoms: N_7  and  C_8
REMARK    4  A    between atoms: C_13  and  C_14
REMARK    5  A    between atoms: N_16  and  C_17
REMARK    6  A    between atoms: C_17  and  C_18
REMARK    7  A    between atoms: C_18  and  C_19
REMARK    8  A    between atoms: N_21  and  C_22
REMARK    9  A    between atoms: C_22  and  C_23
REMARK   10  A    between atoms: C_23  and  C_24
REMARK   11  A    between atoms: C_24  and  N_25
REMARK   12  A    between atoms: N_25  and  C_26
REMARK   13  A    between atoms: C_41  and  C_42
REMARK                            x       y       z     vdW  Elec       q    Type
REMARK                         _______ _______ _______ _____ _____    ______ ____
ROOT
ATOM      1  C   UNL A   1      44.314 -18.445 -34.448  0.00  0.00    +0.215 C 
ATOM      2  O   UNL A   1      43.705 -18.603 -35.499  0.00  0.00    -0.276 OA
ATOM      3  N   UNL A   1      45.673 -18.644 -34.322  0.00  0.00    -0.315 N 
ATOM      4  H   UNL A   1      46.114 -18.381 -33.482  0.00  0.00    +0.000 HD
ENDROOT
BRANCH   1   5
ATOM      5  C   UNL A   1      43.663 -18.014 -33.152  0.00  0.00    +0.039 C 
BRANCH   5   6
ATOM      6  C   UNL A   1      42.776 -19.109 -32.577  0.00  0.00    +0.020 C 
BRANCH   6   9
ATOM      7  C   UNL A   1      40.524 -20.038 -32.971  0.00  0.00    +0.246 C 
ATOM      8  O   UNL A   1      40.826 -21.137 -32.516  0.00  0.00    -0.270 OA
ATOM      9  N   UNL A   1      41.405 -18.977 -33.045  0.00  0.00    -0.311 N 
ATOM     10  H   UNL A   1      41.101 -18.120 -33.420  0.00  0.00    +0.000 HD
BRANCH   7  16
ATOM     11  C   UNL A   1      38.844 -20.151 -34.835  0.00  0.00    +0.044 A 
ATOM     12  C   UNL A   1      37.528 -19.946 -35.276  0.00  0.00    -0.040 A 
ATOM     13  C   UNL A   1      36.550 -19.417 -34.428  0.00  0.00    -0.060 A 
ATOM     14  C   UNL A   1      36.870 -19.083 -33.115  0.00  0.00    -0.061 A 
ATOM     15  C   UNL A   1      38.168 -19.278 -32.647  0.00  0.00    -0.048 A 
ATOM     16  C   UNL A   1      39.153 -19.802 -33.501  0.00  0.00    +0.058 A 
BRANCH  11  17
ATOM     17  N   UNL A   1      39.839 -20.649 -35.705  0.00  0.00    -0.314 N 
ATOM     18  H   UNL A   1      40.185 -21.534 -35.445  0.00  0.00    +0.000 HD
BRANCH  17  24
ATOM     19  C   UNL A   1      42.048 -21.377 -40.142  0.00  0.00    -0.039 C 
ATOM     20  C   UNL A   1      41.499 -20.488 -39.059  0.00  0.00    -0.046 A 
ATOM     21  C   UNL A   1      41.582 -19.099 -39.232  0.00  0.00    -0.058 A 
ATOM     22  C   UNL A   1      41.105 -18.234 -38.256  0.00  0.00    -0.060 A 
ATOM     23  C   UNL A   1      40.541 -18.746 -37.089  0.00  0.00    -0.040 A 
ATOM     24  C   UNL A   1      40.435 -20.128 -36.875  0.00  0.00    +0.035 A 
ATOM     25  C   UNL A   1      40.895 -21.011 -37.888  0.00  0.00    -0.026 A 
ATOM     26  C   UNL A   1      40.783 -22.505 -37.684  0.00  0.00    -0.038 C 
ENDBRANCH  17  24
ENDBRANCH  11  17
ENDBRANCH   7  16
ENDBRANCH   6   9
ENDBRANCH   5   6
ENDBRANCH   1   5
BRANCH   3  27
ATOM     27  C   UNL A   1      46.477 -19.225 -35.380  0.00  0.00    +0.013 C 
BRANCH  27  28
ATOM     28  C   UNL A   1      47.382 -18.221 -36.093  0.00  0.00    -0.022 C 
BRANCH  28  29
ATOM     29  C   UNL A   1      46.897 -17.888 -37.506  0.00  0.00    +0.011 C 
BRANCH  29  30
ATOM     30  N   UNL A   1      45.533 -18.390 -37.769  0.00  0.00    -0.343 N 
ATOM     31  H   UNL A   1      44.944 -18.698 -37.043  0.00  0.00    +0.000 HD
BRANCH  30  32
ATOM     32  C   UNL A   1      45.118 -18.404 -39.125  0.00  0.00    +0.041 A 
ATOM     33  C   UNL A   1      44.487 -17.269 -39.683  0.00  0.00    -0.005 A 
ATOM     34  C   UNL A   1      44.171 -17.303 -41.045  0.00  0.00    +0.047 A 
ATOM     35  N   UNL A   1      44.482 -18.343 -41.854  0.00  0.00    -0.251 NA
ATOM     36  C   UNL A   1      45.058 -19.427 -41.325  0.00  0.00    +0.074 A 
ATOM     37  C   UNL A   1      45.325 -20.490 -42.176  0.00  0.00    -0.017 A 
ATOM     38  C   UNL A   1      45.886 -21.673 -41.702  0.00  0.00    +0.043 A 
ATOM     39 CL   UNL A   1      46.202 -22.967 -42.791  0.00  0.00    -0.083 Cl
ATOM     40  C   UNL A   1      46.177 -21.818 -40.355  0.00  0.00    -0.043 A 
ATOM     41  C   UNL A   1      45.917 -20.756 -39.490  0.00  0.00    -0.049 A 
ATOM     42  C   UNL A   1      45.383 -19.530 -39.958  0.00  0.00    +0.022 A 
ATOM     43  C   UNL A   1      43.505 -16.142 -41.739  0.00  0.00    -0.010 C 
ATOM     44  C   UNL A   1      42.766 -15.217 -40.782  0.00  0.00    -0.047 C 
ATOM     45  C   UNL A   1      43.683 -14.840 -39.630  0.00  0.00    -0.049 C 
ATOM     46  C   UNL A   1      44.090 -16.081 -38.837  0.00  0.00    -0.024 C 
ENDBRANCH  30  32
ENDBRANCH  29  30
ENDBRANCH  28  29
ENDBRANCH  27  28
ENDBRANCH   3  27
TORSDOF 11
ENDMDL
MODEL 17
REMARK VINA RESULT:    -6.039     18.465     22.187
REMARK INTER + INTRA:         -15.490
REMARK INTER:                 -11.238
REMARK INTRA:                  -4.252
REMARK UNBOUND:                -5.567
REMARK  Name = cpd46.pdb
REMARK  13 active torsions:
REMARK  status: ('A' for Active; 'I' for Inactive)
REMARK    1  A    between atoms: C_1  and  C_2
REMARK    2  A    between atoms: C_6  and  N_7
REMARK    3  A    between atoms: N_7  and  C_8
REMARK    4  A    between atoms: C_13  and  C_14
REMARK    5  A    between atoms: N_16  and  C_17
REMARK    6  A    between atoms: C_17  and  C_18
REMARK    7  A    between atoms: C_18  and  C_19
REMARK    8  A    between atoms: N_21  and  C_22
REMARK    9  A    between atoms: C_22  and  C_23
REMARK   10  A    between atoms: C_23  and  C_24
REMARK   11  A    between atoms: C_24  and  N_25
REMARK   12  A    between atoms: N_25  and  C_26
REMARK   13  A    between atoms: C_41  and  C_42
REMARK                            x       y       z     vdW  Elec       q    Type
REMARK                         _______ _______ _______ _____ _____    ______ ____
ROOT
ATOM      1  C   UNL A   1      42.479 -15.424 -38.237  0.00  0.00    +0.215 C 
ATOM      2  O   UNL A   1      42.232 -16.392 -38.947  0.00  0.00    -0.276 OA
ATOM      3  N   UNL A   1      42.035 -15.306 -36.936  0.00  0.00    -0.315 N 
ATOM      4  H   UNL A   1      42.372 -14.562 -36.387  0.00  0.00    +0.000 HD
ENDROOT
BRANCH   1   5
ATOM      5  C   UNL A   1      43.297 -14.234 -38.687  0.00  0.00    +0.039 C 
BRANCH   5   6
ATOM      6  C   UNL A   1      44.777 -14.574 -38.787  0.00  0.00    +0.020 C 
BRANCH   6   9
ATOM      7  C   UNL A   1      46.381 -16.275 -37.998  0.00  0.00    +0.246 C 
ATOM      8  O   UNL A   1      47.338 -15.703 -38.509  0.00  0.00    -0.270 OA
ATOM      9  N   UNL A   1      45.085 -15.804 -38.076  0.00  0.00    -0.311 N 
ATOM     10  H   UNL A   1      44.359 -16.308 -37.643  0.00  0.00    +0.000 HD
BRANCH   7  16
ATOM     11  C   UNL A   1      46.964 -18.719 -37.975  0.00  0.00    +0.044 A 
ATOM     12  C   UNL A   1      47.178 -19.892 -37.237  0.00  0.00    -0.040 A 
ATOM     13  C   UNL A   1      47.021 -19.917 -35.848  0.00  0.00    -0.060 A 
ATOM     14  C   UNL A   1      46.647 -18.763 -35.165  0.00  0.00    -0.061 A 
ATOM     15  C   UNL A   1      46.430 -17.581 -35.870  0.00  0.00    -0.048 A 
ATOM     16  C   UNL A   1      46.580 -17.556 -37.268  0.00  0.00    +0.058 A 
BRANCH  11  17
ATOM     17  N   UNL A   1      47.087 -18.705 -39.382  0.00  0.00    -0.314 N 
ATOM     18  H   UNL A   1      47.980 -18.438 -39.699  0.00  0.00    +0.000 HD
BRANCH  17  24
ATOM     19  C   UNL A   1      45.272 -21.913 -42.775  0.00  0.00    -0.039 C 
ATOM     20  C   UNL A   1      45.278 -20.582 -42.072  0.00  0.00    -0.046 A 
ATOM     21  C   UNL A   1      44.342 -19.615 -42.468  0.00  0.00    -0.058 A 
ATOM     22  C   UNL A   1      44.316 -18.366 -41.862  0.00  0.00    -0.060 A 
ATOM     23  C   UNL A   1      45.227 -18.063 -40.853  0.00  0.00    -0.040 A 
ATOM     24  C   UNL A   1      46.178 -19.000 -40.424  0.00  0.00    +0.035 A 
ATOM     25  C   UNL A   1      46.184 -20.288 -41.022  0.00  0.00    -0.026 A 
ATOM     26  C   UNL A   1      47.194 -21.318 -40.570  0.00  0.00    -0.038 C 
ENDBRANCH  17  24
ENDBRANCH  11  17
ENDBRANCH   7  16
ENDBRANCH   6   9
ENDBRANCH   5   6
ENDBRANCH   1   5
BRANCH   3  27
ATOM     27  C   UNL A   1      41.092 -16.236 -36.346  0.00  0.00    +0.013 C 
BRANCH  27  28
ATOM     28  C   UNL A   1      41.586 -16.886 -35.055  0.00  0.00    -0.022 C 
BRANCH  28  29
ATOM     29  C   UNL A   1      42.911 -17.629 -35.238  0.00  0.00    +0.011 C 
BRANCH  29  30
ATOM     30  N   UNL A   1      42.871 -19.001 -34.692  0.00  0.00    -0.343 N 
ATOM     31  H   UNL A   1      43.435 -19.274 -33.933  0.00  0.00    +0.000 HD
BRANCH  30  32
ATOM     32  C   UNL A   1      41.976 -19.903 -35.322  0.00  0.00    +0.041 A 
ATOM     33  C   UNL A   1      42.301 -20.456 -36.582  0.00  0.00    -0.005 A 
ATOM     34  C   UNL A   1      41.425 -21.403 -37.123  0.00  0.00    +0.047 A 
ATOM     35  N   UNL A   1      40.319 -21.843 -36.480  0.00  0.00    -0.251 NA
ATOM     36  C   UNL A   1      39.996 -21.307 -35.299  0.00  0.00    +0.074 A 
ATOM     37  C   UNL A   1      38.834 -21.753 -34.688  0.00  0.00    -0.017 A 
ATOM     38  C   UNL A   1      38.402 -21.220 -33.476  0.00  0.00    +0.043 A 
ATOM     39 CL   UNL A   1      36.954 -21.801 -32.751  0.00  0.00    -0.083 Cl
ATOM     40  C   UNL A   1      39.125 -20.211 -32.860  0.00  0.00    -0.043 A 
ATOM     41  C   UNL A   1      40.298 -19.755 -33.461  0.00  0.00    -0.049 A 
ATOM     42  C   UNL A   1      40.775 -20.313 -34.673  0.00  0.00    +0.022 A 
ATOM     43  C   UNL A   1      41.683 -22.058 -38.455  0.00  0.00    -0.010 C 
ATOM     44  C   UNL A   1      42.623 -21.257 -39.345  0.00  0.00    -0.047 C 
ATOM     45  C   UNL A   1      43.869 -20.882 -38.560  0.00  0.00    -0.049 C 
ATOM     46  C   UNL A   1      43.507 -19.996 -37.368  0.00  0.00    -0.024 C 
ENDBRANCH  30  32
ENDBRANCH  29  30
ENDBRANCH  28  29
ENDBRANCH  27  28
ENDBRANCH   3  27
TORSDOF 11
ENDMDL
MODEL 18
REMARK VINA RESULT:    -6.034     18.489     22.353
REMARK INTER + INTRA:         -15.481
REMARK INTER:                 -11.258
REMARK INTRA:                  -4.223
REMARK UNBOUND:                -5.567
REMARK  Name = cpd46.pdb
REMARK  13 active torsions:
REMARK  status: ('A' for Active; 'I' for Inactive)
REMARK    1  A    between atoms: C_1  and  C_2
REMARK    2  A    between atoms: C_6  and  N_7
REMARK    3  A    between atoms: N_7  and  C_8
REMARK    4  A    between atoms: C_13  and  C_14
REMARK    5  A    between atoms: N_16  and  C_17
REMARK    6  A    between atoms: C_17  and  C_18
REMARK    7  A    between atoms: C_18  and  C_19
REMARK    8  A    between atoms: N_21  and  C_22
REMARK    9  A    between atoms: C_22  and  C_23
REMARK   10  A    between atoms: C_23  and  C_24
REMARK   11  A    between atoms: C_24  and  N_25
REMARK   12  A    between atoms: N_25  and  C_26
REMARK   13  A    between atoms: C_41  and  C_42
REMARK                            x       y       z     vdW  Elec       q    Type
REMARK                         _______ _______ _______ _____ _____    ______ ____
ROOT
ATOM      1  C   UNL A   1      42.462 -15.504 -38.251  0.00  0.00    +0.215 C 
ATOM      2  O   UNL A   1      42.154 -16.440 -38.979  0.00  0.00    -0.276 OA
ATOM      3  N   UNL A   1      42.051 -15.397 -36.939  0.00  0.00    -0.315 N 
ATOM      4  H   UNL A   1      42.435 -14.684 -36.379  0.00  0.00    +0.000 HD
ENDROOT
BRANCH   1   5
ATOM      5  C   UNL A   1      43.329 -14.344 -38.690  0.00  0.00    +0.039 C 
BRANCH   5   6
ATOM      6  C   UNL A   1      44.795 -14.743 -38.790  0.00  0.00    +0.020 C 
BRANCH   6   9
ATOM      7  C   UNL A   1      46.325 -16.517 -38.017  0.00  0.00    +0.246 C 
ATOM      8  O   UNL A   1      47.305 -15.986 -38.529  0.00  0.00    -0.270 OA
ATOM      9  N   UNL A   1      45.051 -15.990 -38.086  0.00  0.00    -0.311 N 
ATOM     10  H   UNL A   1      44.305 -16.464 -37.653  0.00  0.00    +0.000 HD
BRANCH   7  16
ATOM     11  C   UNL A   1      46.841 -18.976 -38.003  0.00  0.00    +0.044 A 
ATOM     12  C   UNL A   1      47.004 -20.162 -37.271  0.00  0.00    -0.040 A 
ATOM     13  C   UNL A   1      46.812 -20.195 -35.886  0.00  0.00    -0.060 A 
ATOM     14  C   UNL A   1      46.452 -19.037 -35.202  0.00  0.00    -0.061 A 
ATOM     15  C   UNL A   1      46.286 -17.843 -35.901  0.00  0.00    -0.048 A 
ATOM     16  C   UNL A   1      46.471 -17.810 -37.294  0.00  0.00    +0.058 A 
BRANCH  11  17
ATOM     17  N   UNL A   1      46.999 -18.953 -39.406  0.00  0.00    -0.314 N 
ATOM     18  H   UNL A   1      47.905 -18.703 -39.698  0.00  0.00    +0.000 HD
BRANCH  17  24
ATOM     19  C   UNL A   1      45.146 -22.116 -42.821  0.00  0.00    -0.039 C 
ATOM     20  C   UNL A   1      45.191 -20.779 -42.132  0.00  0.00    -0.046 A 
ATOM     21  C   UNL A   1      44.313 -19.776 -42.567  0.00  0.00    -0.058 A 
ATOM     22  C   UNL A   1      44.324 -18.519 -41.975  0.00  0.00    -0.060 A 
ATOM     23  C   UNL A   1      45.217 -18.246 -40.942  0.00  0.00    -0.040 A 
ATOM     24  C   UNL A   1      46.111 -19.220 -40.473  0.00  0.00    +0.035 A 
ATOM     25  C   UNL A   1      46.077 -20.513 -41.057  0.00  0.00    -0.026 A 
ATOM     26  C   UNL A   1      47.024 -21.583 -40.562  0.00  0.00    -0.038 C 
ENDBRANCH  17  24
ENDBRANCH  11  17
ENDBRANCH   7  16
ENDBRANCH   6   9
ENDBRANCH   5   6
ENDBRANCH   1   5
BRANCH   3  27
ATOM     27  C   UNL A   1      41.075 -16.294 -36.352  0.00  0.00    +0.013 C 
BRANCH  27  28
ATOM     28  C   UNL A   1      41.585 -17.050 -35.126  0.00  0.00    -0.022 C 
BRANCH  28  29
ATOM     29  C   UNL A   1      42.873 -17.828 -35.405  0.00  0.00    +0.011 C 
BRANCH  29  30
ATOM     30  N   UNL A   1      42.810 -19.220 -34.916  0.00  0.00    -0.343 N 
ATOM     31  H   UNL A   1      43.439 -19.562 -34.240  0.00  0.00    +0.000 HD
BRANCH  30  32
ATOM     32  C   UNL A   1      41.794 -20.038 -35.474  0.00  0.00    +0.041 A 
ATOM     33  C   UNL A   1      40.674 -20.406 -34.693  0.00  0.00    -0.005 A 
ATOM     34  C   UNL A   1      39.662 -21.145 -35.313  0.00  0.00    +0.047 A 
ATOM     35  N   UNL A   1      39.684 -21.479 -36.624  0.00  0.00    -0.251 NA
ATOM     36  C   UNL A   1      40.751 -21.153 -37.360  0.00  0.00    +0.074 A 
ATOM     37  C   UNL A   1      40.757 -21.547 -38.690  0.00  0.00    -0.017 A 
ATOM     38  C   UNL A   1      41.845 -21.285 -39.519  0.00  0.00    +0.043 A 
ATOM     39 CL   UNL A   1      41.812 -21.791 -41.162  0.00  0.00    -0.083 Cl
ATOM     40  C   UNL A   1      42.961 -20.633 -39.019  0.00  0.00    -0.043 A 
ATOM     41  C   UNL A   1      42.967 -20.227 -37.685  0.00  0.00    -0.049 A 
ATOM     42  C   UNL A   1      41.854 -20.449 -36.837  0.00  0.00    +0.022 A 
ATOM     43  C   UNL A   1      38.423 -21.579 -34.572  0.00  0.00    -0.010 C 
ATOM     44  C   UNL A   1      38.610 -21.612 -33.062  0.00  0.00    -0.047 C 
ATOM     45  C   UNL A   1      39.212 -20.298 -32.595  0.00  0.00    -0.049 C 
ATOM     46  C   UNL A   1      40.592 -20.087 -33.217  0.00  0.00    -0.024 C 
ENDBRANCH  30  32
ENDBRANCH  29  30
ENDBRANCH  28  29
ENDBRANCH  27  28
ENDBRANCH   3  27
TORSDOF 11
ENDMDL
MODEL 19
REMARK VINA RESULT:    -5.864     19.101     22.258
REMARK INTER + INTRA:         -15.201
REMARK INTER:                 -11.078
REMARK INTRA:                  -4.123
REMARK UNBOUND:                -5.567
REMARK  Name = cpd46.pdb
REMARK  13 active torsions:
REMARK  status: ('A' for Active; 'I' for Inactive)
REMARK    1  A    between atoms: C_1  and  C_2
REMARK    2  A    between atoms: C_6  and  N_7
REMARK    3  A    between atoms: N_7  and  C_8
REMARK    4  A    between atoms: C_13  and  C_14
REMARK    5  A    between atoms: N_16  and  C_17
REMARK    6  A    between atoms: C_17  and  C_18
REMARK    7  A    between atoms: C_18  and  C_19
REMARK    8  A    between atoms: N_21  and  C_22
REMARK    9  A    between atoms: C_22  and  C_23
REMARK   10  A    between atoms: C_23  and  C_24
REMARK   11  A    between atoms: C_24  and  N_25
REMARK   12  A    between atoms: N_25  and  C_26
REMARK   13  A    between atoms: C_41  and  C_42
REMARK                            x       y       z     vdW  Elec       q    Type
REMARK                         _______ _______ _______ _____ _____    ______ ____
ROOT
ATOM      1  C   UNL A   1      46.175 -16.016 -38.347  0.00  0.00    +0.215 C 
ATOM      2  O   UNL A   1      47.396 -16.035 -38.438  0.00  0.00    -0.276 OA
ATOM      3  N   UNL A   1      45.486 -16.542 -37.274  0.00  0.00    -0.315 N 
ATOM      4  H   UNL A   1      44.517 -16.384 -37.209  0.00  0.00    +0.000 HD
ENDROOT
BRANCH   1   5
ATOM      5  C   UNL A   1      45.260 -15.418 -39.393  0.00  0.00    +0.039 C 
BRANCH   5   6
ATOM      6  C   UNL A   1      45.490 -16.039 -40.764  0.00  0.00    +0.020 C 
BRANCH   6   9
ATOM      7  C   UNL A   1      45.394 -18.469 -41.177  0.00  0.00    +0.246 C 
ATOM      8  O   UNL A   1      44.320 -18.392 -41.765  0.00  0.00    -0.270 OA
ATOM      9  N   UNL A   1      46.051 -17.375 -40.650  0.00  0.00    -0.311 N 
ATOM     10  H   UNL A   1      46.912 -17.502 -40.190  0.00  0.00    +0.000 HD
BRANCH   7  16
ATOM     11  C   UNL A   1      45.538 -20.692 -40.015  0.00  0.00    +0.044 A 
ATOM     12  C   UNL A   1      46.161 -21.943 -39.896  0.00  0.00    -0.040 A 
ATOM     13  C   UNL A   1      47.245 -22.297 -40.706  0.00  0.00    -0.060 A 
ATOM     14  C   UNL A   1      47.729 -21.403 -41.657  0.00  0.00    -0.061 A 
ATOM     15  C   UNL A   1      47.129 -20.153 -41.801  0.00  0.00    -0.048 A 
ATOM     16  C   UNL A   1      46.045 -19.793 -40.982  0.00  0.00    +0.058 A 
BRANCH  11  17
ATOM     17  N   UNL A   1      44.468 -20.322 -39.170  0.00  0.00    -0.314 N 
ATOM     18  H   UNL A   1      44.752 -19.836 -38.362  0.00  0.00    +0.000 HD
BRANCH  17  24
ATOM     19  C   UNL A   1      39.813 -18.502 -38.831  0.00  0.00    -0.039 C 
ATOM     20  C   UNL A   1      40.791 -19.611 -39.111  0.00  0.00    -0.046 A 
ATOM     21  C   UNL A   1      40.286 -20.867 -39.476  0.00  0.00    -0.058 A 
ATOM     22  C   UNL A   1      41.145 -21.929 -39.730  0.00  0.00    -0.060 A 
ATOM     23  C   UNL A   1      42.522 -21.752 -39.618  0.00  0.00    -0.040 A 
ATOM     24  C   UNL A   1      43.071 -20.512 -39.258  0.00  0.00    +0.035 A 
ATOM     25  C   UNL A   1      42.193 -19.419 -39.030  0.00  0.00    -0.026 A 
ATOM     26  C   UNL A   1      42.762 -18.071 -38.649  0.00  0.00    -0.038 C 
ENDBRANCH  17  24
ENDBRANCH  11  17
ENDBRANCH   7  16
ENDBRANCH   6   9
ENDBRANCH   5   6
ENDBRANCH   1   5
BRANCH   3  27
ATOM     27  C   UNL A   1      46.136 -17.320 -36.237  0.00  0.00    +0.013 C 
BRANCH  27  28
ATOM     28  C   UNL A   1      45.539 -18.712 -36.039  0.00  0.00    -0.022 C 
BRANCH  28  29
ATOM     29  C   UNL A   1      46.143 -19.450 -34.842  0.00  0.00    +0.011 C 
BRANCH  29  30
ATOM     30  N   UNL A   1      45.127 -19.835 -33.842  0.00  0.00    -0.343 N 
ATOM     31  H   UNL A   1      45.256 -20.602 -33.239  0.00  0.00    +0.000 HD
BRANCH  30  32
ATOM     32  C   UNL A   1      43.953 -19.039 -33.799  0.00  0.00    +0.041 A 
ATOM     33  C   UNL A   1      43.995 -17.749 -33.223  0.00  0.00    -0.005 A 
ATOM     34  C   UNL A   1      42.833 -16.972 -33.278  0.00  0.00    +0.047 A 
ATOM     35  N   UNL A   1      41.698 -17.378 -33.893  0.00  0.00    -0.251 NA
ATOM     36  C   UNL A   1      41.647 -18.606 -34.419  0.00  0.00    +0.074 A 
ATOM     37  C   UNL A   1      40.455 -19.003 -35.005  0.00  0.00    -0.017 A 
ATOM     38  C   UNL A   1      40.301 -20.280 -35.541  0.00  0.00    +0.043 A 
ATOM     39 CL   UNL A   1      38.805 -20.732 -36.260  0.00  0.00    -0.083 Cl
ATOM     40  C   UNL A   1      41.343 -21.191 -35.484  0.00  0.00    -0.043 A 
ATOM     41  C   UNL A   1      42.549 -20.804 -34.901  0.00  0.00    -0.049 A 
ATOM     42  C   UNL A   1      42.738 -19.498 -34.385  0.00  0.00    +0.022 A 
ATOM     43  C   UNL A   1      42.775 -15.581 -32.701  0.00  0.00    -0.010 C 
ATOM     44  C   UNL A   1      43.844 -15.324 -31.648  0.00  0.00    -0.047 C 
ATOM     45  C   UNL A   1      45.201 -15.741 -32.190  0.00  0.00    -0.049 C 
ATOM     46  C   UNL A   1      45.221 -17.238 -32.500  0.00  0.00    -0.024 C 
ENDBRANCH  30  32
ENDBRANCH  29  30
ENDBRANCH  28  29
ENDBRANCH  27  28
ENDBRANCH   3  27
TORSDOF 11
ENDMDL
MODEL 20
REMARK VINA RESULT:    -5.795     18.630     22.278
REMARK INTER + INTRA:         -15.088
REMARK INTER:                 -10.124
REMARK INTRA:                  -4.964
REMARK UNBOUND:                -5.567
REMARK  Name = cpd46.pdb
REMARK  13 active torsions:
REMARK  status: ('A' for Active; 'I' for Inactive)
REMARK    1  A    between atoms: C_1  and  C_2
REMARK    2  A    between atoms: C_6  and  N_7
REMARK    3  A    between atoms: N_7  and  C_8
REMARK    4  A    between atoms: C_13  and  C_14
REMARK    5  A    between atoms: N_16  and  C_17
REMARK    6  A    between atoms: C_17  and  C_18
REMARK    7  A    between atoms: C_18  and  C_19
REMARK    8  A    between atoms: N_21  and  C_22
REMARK    9  A    between atoms: C_22  and  C_23
REMARK   10  A    between atoms: C_23  and  C_24
REMARK   11  A    between atoms: C_24  and  N_25
REMARK   12  A    between atoms: N_25  and  C_26
REMARK   13  A    between atoms: C_41  and  C_42
REMARK                            x       y       z     vdW  Elec       q    Type
REMARK                         _______ _______ _______ _____ _____    ______ ____
ROOT
ATOM      1  C   UNL A   1      43.131 -15.046 -39.195  0.00  0.00    +0.215 C 
ATOM      2  O   UNL A   1      43.340 -16.023 -39.904  0.00  0.00    -0.276 OA
ATOM      3  N   UNL A   1      41.965 -14.861 -38.483  0.00  0.00    -0.315 N 
ATOM      4  H   UNL A   1      41.915 -14.117 -37.841  0.00  0.00    +0.000 HD
ENDROOT
BRANCH   1   5
ATOM      5  C   UNL A   1      44.118 -13.914 -39.007  0.00  0.00    +0.039 C 
BRANCH   5   6
ATOM      6  C   UNL A   1      45.492 -14.427 -38.602  0.00  0.00    +0.020 C 
BRANCH   6   9
ATOM      7  C   UNL A   1      46.270 -16.683 -37.974  0.00  0.00    +0.246 C 
ATOM      8  O   UNL A   1      47.180 -16.669 -38.797  0.00  0.00    -0.270 OA
ATOM      9  N   UNL A   1      45.389 -15.635 -37.798  0.00  0.00    -0.311 N 
ATOM     10  H   UNL A   1      44.679 -15.706 -37.120  0.00  0.00    +0.000 HD
BRANCH   7  16
ATOM     11  C   UNL A   1      45.152 -18.887 -37.523  0.00  0.00    +0.044 A 
ATOM     12  C   UNL A   1      45.017 -20.015 -36.700  0.00  0.00    -0.040 A 
ATOM     13  C   UNL A   1      45.752 -20.147 -35.518  0.00  0.00    -0.060 A 
ATOM     14  C   UNL A   1      46.644 -19.150 -35.134  0.00  0.00    -0.061 A 
ATOM     15  C   UNL A   1      46.803 -18.018 -35.932  0.00  0.00    -0.048 A 
ATOM     16  C   UNL A   1      46.059 -17.881 -37.116  0.00  0.00    +0.058 A 
BRANCH  11  17
ATOM     17  N   UNL A   1      44.381 -18.738 -38.696  0.00  0.00    -0.314 N 
ATOM     18  H   UNL A   1      43.683 -18.047 -38.626  0.00  0.00    +0.000 HD
BRANCH  17  24
ATOM     19  C   UNL A   1      42.368 -21.950 -41.972  0.00  0.00    -0.039 C 
ATOM     20  C   UNL A   1      43.413 -20.947 -41.562  0.00  0.00    -0.046 A 
ATOM     21  C   UNL A   1      44.442 -20.651 -42.467  0.00  0.00    -0.058 A 
ATOM     22  C   UNL A   1      45.440 -19.744 -42.132  0.00  0.00    -0.060 A 
ATOM     23  C   UNL A   1      45.425 -19.123 -40.886  0.00  0.00    -0.040 A 
ATOM     24  C   UNL A   1      44.413 -19.387 -39.951  0.00  0.00    +0.035 A 
ATOM     25  C   UNL A   1      43.377 -20.291 -40.306  0.00  0.00    -0.026 A 
ATOM     26  C   UNL A   1      42.270 -20.585 -39.319  0.00  0.00    -0.038 C 
ENDBRANCH  17  24
ENDBRANCH  11  17
ENDBRANCH   7  16
ENDBRANCH   6   9
ENDBRANCH   5   6
ENDBRANCH   1   5
BRANCH   3  27
ATOM     27  C   UNL A   1      40.809 -15.722 -38.643  0.00  0.00    +0.013 C 
BRANCH  27  28
ATOM     28  C   UNL A   1      40.046 -15.984 -37.345  0.00  0.00    -0.022 C 
BRANCH  28  29
ATOM     29  C   UNL A   1      39.735 -17.467 -37.131  0.00  0.00    +0.011 C 
BRANCH  29  30
ATOM     30  N   UNL A   1      40.948 -18.309 -37.158  0.00  0.00    -0.343 N 
ATOM     31  H   UNL A   1      41.546 -18.334 -37.939  0.00  0.00    +0.000 HD
BRANCH  30  32
ATOM     32  C   UNL A   1      41.203 -19.081 -35.995  0.00  0.00    +0.041 A 
ATOM     33  C   UNL A   1      40.599 -20.350 -35.843  0.00  0.00    -0.005 A 
ATOM     34  C   UNL A   1      40.947 -21.106 -34.719  0.00  0.00    +0.047 A 
ATOM     35  N   UNL A   1      41.861 -20.703 -33.807  0.00  0.00    -0.251 NA
ATOM     36  C   UNL A   1      42.418 -19.494 -33.935  0.00  0.00    +0.074 A 
ATOM     37  C   UNL A   1      43.321 -19.098 -32.960  0.00  0.00    -0.017 A 
ATOM     38  C   UNL A   1      43.917 -17.839 -32.993  0.00  0.00    +0.043 A 
ATOM     39 CL   UNL A   1      45.031 -17.386 -31.764  0.00  0.00    -0.083 Cl
ATOM     40  C   UNL A   1      43.603 -16.945 -34.005  0.00  0.00    -0.043 A 
ATOM     41  C   UNL A   1      42.701 -17.333 -34.994  0.00  0.00    -0.049 A 
ATOM     42  C   UNL A   1      42.114 -18.622 -35.000  0.00  0.00    +0.022 A 
ATOM     43  C   UNL A   1      40.367 -22.474 -34.467  0.00  0.00    -0.010 C 
ATOM     44  C   UNL A   1      39.054 -22.712 -35.200  0.00  0.00    -0.047 C 
ATOM     45  C   UNL A   1      39.215 -22.340 -36.665  0.00  0.00    -0.049 C 
ATOM     46  C   UNL A   1      39.553 -20.856 -36.809  0.00  0.00    -0.024 C 
ENDBRANCH  30  32
ENDBRANCH  29  30
ENDBRANCH  28  29
ENDBRANCH  27  28
ENDBRANCH   3  27
TORSDOF 11
ENDMDL
