REMARK  Name = cpd46.pdb
REMARK  13 active torsions:
REMARK  status: ('A' for Active; 'I' for Inactive)
REMARK    1  A    between atoms: C_1  and  C_2
REMARK    2  A    between atoms: C_6  and  N_7
REMARK    3  A    between atoms: N_7  and  C_8
REMARK    4  A    between atoms: C_13  and  C_14
REMARK    5  A    between atoms: N_16  and  C_17
REMARK    6  A    between atoms: C_17  and  C_18
REMARK    7  A    between atoms: C_18  and  C_19
REMARK    8  A    between atoms: N_21  and  C_22
REMARK    9  A    between atoms: C_22  and  C_23
REMARK   10  A    between atoms: C_23  and  C_24
REMARK   11  A    between atoms: C_24  and  N_25
REMARK   12  A    between atoms: N_25  and  C_26
REMARK   13  A    between atoms: C_41  and  C_42
REMARK                            x       y       z     vdW  Elec       q    Type
REMARK                         _______ _______ _______ _____ _____    ______ ____
ROOT
ATOM      1  C   UNL A   1       6.450   2.942   0.336  0.00  0.00    +0.215 C 
ATOM      2  O   UNL A   1       6.730   1.963  -0.345  0.00  0.00    -0.276 OA
ATOM      3  N   UNL A   1       7.324   3.514   1.237  0.00  0.00    -0.315 N 
ATOM      4  H   UNL A   1       7.077   4.368   1.659  0.00  0.00    +0.000 HD
ENDROOT
BRANCH   1   5
ATOM      5  C   UNL A   1       5.115   3.652   0.284  0.00  0.00    +0.039 C 
BRANCH   5   6
ATOM      6  C   UNL A   1       4.206   3.064  -0.786  0.00  0.00    +0.020 C 
BRANCH   6   9
ATOM      7  C   UNL A   1       1.920   3.233   0.126  0.00  0.00    +0.246 C 
ATOM      8  O   UNL A   1       2.099   2.316   0.921  0.00  0.00    -0.270 OA
ATOM      9  N   UNL A   1       2.888   3.677  -0.753  0.00  0.00    -0.311 N 
ATOM     10  H   UNL A   1       2.683   4.419  -1.366  0.00  0.00    +0.000 HD
BRANCH   7  16
ATOM     11  C   UNL A   1      -0.589   3.168   0.241  0.00  0.00    +0.044 A 
ATOM     12  C   UNL A   1      -1.808   3.861   0.208  0.00  0.00    -0.040 A 
ATOM     13  C   UNL A   1      -1.854   5.244   0.005  0.00  0.00    -0.060 A 
ATOM     14  C   UNL A   1      -0.676   5.965  -0.168  0.00  0.00    -0.061 A 
ATOM     15  C   UNL A   1       0.551   5.305  -0.137  0.00  0.00    -0.048 A 
ATOM     16  C   UNL A   1       0.598   3.914   0.059  0.00  0.00    +0.058 A 
BRANCH  11  17
ATOM     17  N   UNL A   1      -0.547   1.766   0.408  0.00  0.00    -0.314 N 
ATOM     18  H   UNL A   1       0.219   1.454   0.942  0.00  0.00    +0.000 HD
BRANCH  17  24
ATOM     19  C   UNL A   1      -2.078  -2.996   0.682  0.00  0.00    -0.039 C 
ATOM     20  C   UNL A   1      -2.151  -1.606   0.110  0.00  0.00    -0.046 A 
ATOM     21  C   UNL A   1      -3.094  -1.348  -0.895  0.00  0.00    -0.058 A 
ATOM     22  C   UNL A   1      -3.192  -0.086  -1.467  0.00  0.00    -0.060 A 
ATOM     23  C   UNL A   1      -2.345   0.936  -1.045  0.00  0.00    -0.040 A 
ATOM     24  C   UNL A   1      -1.389   0.724  -0.041  0.00  0.00    +0.035 A 
ATOM     25  C   UNL A   1      -1.311  -0.558   0.565  0.00  0.00    -0.026 A 
ATOM     26  C   UNL A   1      -0.295  -0.809   1.656  0.00  0.00    -0.038 C 
ENDBRANCH  17  24
ENDBRANCH  11  17
ENDBRANCH   7  16
ENDBRANCH   6   9
ENDBRANCH   5   6
ENDBRANCH   1   5
BRANCH   3  27
ATOM     27  C   UNL A   1       8.593   2.905   1.586  0.00  0.00    +0.013 C 
BRANCH  27  28
ATOM     28  C   UNL A   1       9.749   3.315   0.675  0.00  0.00    -0.022 C 
BRANCH  28  29
ATOM     29  C   UNL A   1       9.750   2.558  -0.655  0.00  0.00    +0.011 C 
BRANCH  29  30
ATOM     30  N   UNL A   1      10.981   2.789  -1.437  0.00  0.00    -0.343 N 
ATOM     31  H   UNL A   1      10.977   3.317  -2.268  0.00  0.00    +0.000 HD
BRANCH  30  32
ATOM     32  C   UNL A   1      12.170   2.208  -0.926  0.00  0.00    +0.041 A 
ATOM     33  C   UNL A   1      13.179   3.031  -0.376  0.00  0.00    -0.005 A 
ATOM     34  C   UNL A   1      14.295   2.405   0.188  0.00  0.00    +0.047 A 
ATOM     35  N   UNL A   1      14.428   1.061   0.273  0.00  0.00    -0.251 NA
ATOM     36  C   UNL A   1      13.487   0.279  -0.266  0.00  0.00    +0.074 A 
ATOM     37  C   UNL A   1      13.676  -1.093  -0.196  0.00  0.00    -0.017 A 
ATOM     38  C   UNL A   1      12.766  -1.980  -0.767  0.00  0.00    +0.043 A 
ATOM     39 CL   UNL A   1      13.038  -3.675  -0.658  0.00  0.00    -0.083 Cl
ATOM     40  C   UNL A   1      11.651  -1.501  -1.436  0.00  0.00    -0.043 A 
ATOM     41  C   UNL A   1      11.446  -0.124  -1.510  0.00  0.00    -0.049 A 
ATOM     42  C   UNL A   1      12.339   0.793  -0.902  0.00  0.00    +0.022 A 
ATOM     43  C   UNL A   1      15.422   3.190   0.808  0.00  0.00    -0.010 C 
ATOM     44  C   UNL A   1      15.493   4.628   0.313  0.00  0.00    -0.047 C 
ATOM     45  C   UNL A   1      14.121   5.272   0.425  0.00  0.00    -0.049 C 
ATOM     46  C   UNL A   1      13.109   4.539  -0.455  0.00  0.00    -0.024 C 
ENDBRANCH  30  32
ENDBRANCH  29  30
ENDBRANCH  28  29
ENDBRANCH  27  28
ENDBRANCH   3  27
TORSDOF 11
