MODEL 1
REMARK VINA RESULT:   -10.193      0.000      0.000
REMARK INTER + INTRA:         -17.981
REMARK INTER:                 -17.344
REMARK INTRA:                  -0.637
REMARK UNBOUND:                -0.637
REMARK  Name = cpd95.pdb
REMARK  15 active torsions:
REMARK  status: ('A' for Active; 'I' for Inactive)
REMARK    1  A    between atoms: C_1  and  O_2
REMARK    2  A    between atoms: O_2  and  C_3
REMARK    3  A    between atoms: C_5  and  C_6
REMARK    4  A    between atoms: C_6  and  C_7
REMARK    5  A    between atoms: C_7  and  C_8
REMARK    6  A    between atoms: N_10  and  C_11
REMARK    7  A    between atoms: C_11  and  C_12
REMARK    8  A    between atoms: C_12  and  C_13
REMARK    9  A    between atoms: C_13  and  C_14
REMARK   10  A    between atoms: N_16  and  N_17
REMARK   11  A    between atoms: N_17  and  C_18
REMARK   12  A    between atoms: C_33  and  O_34
REMARK   13  A    between atoms: O_34  and  C_35
REMARK   14  A    between atoms: C_36  and  O_37
REMARK   15  A    between atoms: O_37  and  C_38
REMARK                            x       y       z     vdW  Elec       q    Type
REMARK                         _______ _______ _______ _____ _____    ______ ____
ROOT
ATOM      1  C   UNL A   1      43.335 -36.787 -30.901  0.00  0.00    +0.027 C 
ENDROOT
BRANCH   1   2
ATOM      2  C   UNL A   1      43.938 -37.947 -30.140  0.00  0.00    +0.229 C 
ATOM      3  O   UNL A   1      43.317 -38.980 -29.899  0.00  0.00    -0.274 OA
ATOM      4  N   UNL A   1      45.250 -37.741 -29.752  0.00  0.00    -0.236 N 
ATOM      5  H   UNL A   1      45.736 -36.920 -29.995  0.00  0.00    +0.000 HD
BRANCH   4   6
ATOM      6  N   UNL A   1      45.857 -38.756 -28.994  0.00  0.00    -0.264 N 
ATOM      7  H   UNL A   1      45.622 -38.926 -28.053  0.00  0.00    +0.000 HD
BRANCH   6   8
ATOM      8  C   UNL A   1      46.853 -39.533 -29.695  0.00  0.00    +0.058 A 
ATOM      9  C   UNL A   1      46.550 -40.735 -30.391  0.00  0.00    -0.003 A 
ATOM     10  C   UNL A   1      47.578 -41.323 -31.139  0.00  0.00    +0.047 A 
ATOM     11  N   UNL A   1      48.834 -40.829 -31.206  0.00  0.00    -0.251 NA
ATOM     12  C   UNL A   1      49.114 -39.680 -30.590  0.00  0.00    +0.073 A 
ATOM     13  C   UNL A   1      50.407 -39.192 -30.737  0.00  0.00    -0.036 A 
ATOM     14  C   UNL A   1      50.811 -37.983 -30.174  0.00  0.00    -0.060 A 
ATOM     15  C   UNL A   1      49.900 -37.239 -29.446  0.00  0.00    -0.061 A 
ATOM     16  C   UNL A   1      48.597 -37.718 -29.280  0.00  0.00    -0.051 A 
ATOM     17  C   UNL A   1      48.168 -38.957 -29.837  0.00  0.00    +0.023 A 
ATOM     18  C   UNL A   1      47.369 -42.580 -31.943  0.00  0.00    -0.010 C 
ATOM     19  C   UNL A   1      45.922 -42.758 -32.376  0.00  0.00    -0.047 C 
ATOM     20  C   UNL A   1      45.036 -42.696 -31.147  0.00  0.00    -0.049 C 
ATOM     21  C   UNL A   1      45.167 -41.350 -30.430  0.00  0.00    -0.024 C 
ENDBRANCH   6   8
ENDBRANCH   4   6
ENDBRANCH   1   2
BRANCH   1  22
ATOM     22  C   UNL A   1      41.855 -36.985 -31.201  0.00  0.00    -0.029 C 
BRANCH  22  23
ATOM     23  C   UNL A   1      41.418 -36.346 -32.519  0.00  0.00    +0.012 C 
BRANCH  23  26
ATOM     24  C   UNL A   1      39.570 -34.777 -32.099  0.00  0.00    +0.213 C 
ATOM     25  O   UNL A   1      40.321 -33.825 -31.924  0.00  0.00    -0.276 OA
ATOM     26  N   UNL A   1      40.007 -36.025 -32.488  0.00  0.00    -0.315 N 
ATOM     27  H   UNL A   1      39.349 -36.710 -32.749  0.00  0.00    +0.000 HD
BRANCH  24  28
ATOM     28  C   UNL A   1      38.083 -34.691 -31.841  0.00  0.00    +0.028 C 
BRANCH  28  29
ATOM     29  C   UNL A   1      37.709 -35.644 -30.710  0.00  0.00    -0.019 C 
BRANCH  29  32
ATOM     30  C   UNL A   1      34.489 -35.972 -28.692  0.00  0.00    +0.165 A 
ATOM     31  C   UNL A   1      35.806 -36.152 -29.124  0.00  0.00    -0.013 A 
ATOM     32  C   UNL A   1      36.278 -35.488 -30.263  0.00  0.00    -0.040 A 
ATOM     33  C   UNL A   1      35.412 -34.656 -30.988  0.00  0.00    -0.013 A 
ATOM     34  C   UNL A   1      34.089 -34.460 -30.576  0.00  0.00    +0.165 A 
ATOM     35  C   UNL A   1      33.630 -35.133 -29.429  0.00  0.00    +0.204 A 
BRANCH  30  37
ATOM     36  C   UNL A   1      34.798 -37.363 -26.773  0.00  0.00    +0.079 C 
ATOM     37  O   UNL A   1      33.941 -36.576 -27.588  0.00  0.00    -0.491 OA
ENDBRANCH  30  37
BRANCH  34  38
ATOM     38  O   UNL A   1      33.209 -33.619 -31.206  0.00  0.00    -0.491 OA
ATOM     39  C   UNL A   1      32.887 -33.890 -32.563  0.00  0.00    +0.079 C 
ENDBRANCH  34  38
BRANCH  35  40
ATOM     40  O   UNL A   1      32.363 -34.945 -28.916  0.00  0.00    -0.488 OA
ATOM     41  C   UNL A   1      32.274 -33.834 -28.028  0.00  0.00    +0.079 C 
ENDBRANCH  35  40
ENDBRANCH  29  32
ENDBRANCH  28  29
ENDBRANCH  24  28
ENDBRANCH  23  26
ENDBRANCH  22  23
ENDBRANCH   1  22
TORSDOF 12
ENDMDL
MODEL 2
REMARK VINA RESULT:   -10.016      1.728      2.395
REMARK INTER + INTRA:         -17.679
REMARK INTER:                 -16.848
REMARK INTRA:                  -0.831
REMARK UNBOUND:                -0.637
REMARK  Name = cpd95.pdb
REMARK  15 active torsions:
REMARK  status: ('A' for Active; 'I' for Inactive)
REMARK    1  A    between atoms: C_1  and  O_2
REMARK    2  A    between atoms: O_2  and  C_3
REMARK    3  A    between atoms: C_5  and  C_6
REMARK    4  A    between atoms: C_6  and  C_7
REMARK    5  A    between atoms: C_7  and  C_8
REMARK    6  A    between atoms: N_10  and  C_11
REMARK    7  A    between atoms: C_11  and  C_12
REMARK    8  A    between atoms: C_12  and  C_13
REMARK    9  A    between atoms: C_13  and  C_14
REMARK   10  A    between atoms: N_16  and  N_17
REMARK   11  A    between atoms: N_17  and  C_18
REMARK   12  A    between atoms: C_33  and  O_34
REMARK   13  A    between atoms: O_34  and  C_35
REMARK   14  A    between atoms: C_36  and  O_37
REMARK   15  A    between atoms: O_37  and  C_38
REMARK                            x       y       z     vdW  Elec       q    Type
REMARK                         _______ _______ _______ _____ _____    ______ ____
ROOT
ATOM      1  C   UNL A   1      43.877 -35.980 -31.282  0.00  0.00    +0.027 C 
ENDROOT
BRANCH   1   2
ATOM      2  C   UNL A   1      45.120 -36.333 -30.495  0.00  0.00    +0.229 C 
ATOM      3  O   UNL A   1      46.171 -35.704 -30.593  0.00  0.00    -0.274 OA
ATOM      4  N   UNL A   1      44.960 -37.418 -29.652  0.00  0.00    -0.236 N 
ATOM      5  H   UNL A   1      44.094 -37.878 -29.564  0.00  0.00    +0.000 HD
BRANCH   4   6
ATOM      6  N   UNL A   1      46.090 -37.836 -28.929  0.00  0.00    -0.264 N 
ATOM      7  H   UNL A   1      46.355 -37.418 -28.078  0.00  0.00    +0.000 HD
BRANCH   6   8
ATOM      8  C   UNL A   1      46.833 -38.922 -29.524  0.00  0.00    +0.058 A 
ATOM      9  C   UNL A   1      46.232 -40.151 -29.914  0.00  0.00    -0.003 A 
ATOM     10  C   UNL A   1      47.035 -41.072 -30.598  0.00  0.00    +0.047 A 
ATOM     11  N   UNL A   1      48.341 -40.867 -30.875  0.00  0.00    -0.251 NA
ATOM     12  C   UNL A   1      48.901 -39.702 -30.549  0.00  0.00    +0.073 A 
ATOM     13  C   UNL A   1      50.232 -39.526 -30.906  0.00  0.00    -0.036 A 
ATOM     14  C   UNL A   1      50.916 -38.338 -30.656  0.00  0.00    -0.060 A 
ATOM     15  C   UNL A   1      50.253 -37.295 -30.034  0.00  0.00    -0.061 A 
ATOM     16  C   UNL A   1      48.915 -37.456 -29.661  0.00  0.00    -0.051 A 
ATOM     17  C   UNL A   1      48.203 -38.666 -29.896  0.00  0.00    +0.023 A 
ATOM     18  C   UNL A   1      46.502 -42.393 -31.088  0.00  0.00    -0.010 C 
ATOM     19  C   UNL A   1      45.004 -42.354 -31.350  0.00  0.00    -0.047 C 
ATOM     20  C   UNL A   1      44.305 -41.871 -30.095  0.00  0.00    -0.049 C 
ATOM     21  C   UNL A   1      44.766 -40.466 -29.702  0.00  0.00    -0.024 C 
ENDBRANCH   6   8
ENDBRANCH   4   6
ENDBRANCH   1   2
BRANCH   1  22
ATOM     22  C   UNL A   1      42.740 -36.969 -31.059  0.00  0.00    -0.029 C 
BRANCH  22  23
ATOM     23  C   UNL A   1      41.665 -36.903 -32.145  0.00  0.00    +0.012 C 
BRANCH  23  26
ATOM     24  C   UNL A   1      39.414 -35.958 -31.834  0.00  0.00    +0.213 C 
ATOM     25  O   UNL A   1      39.571 -35.109 -32.704  0.00  0.00    -0.276 OA
ATOM     26  N   UNL A   1      40.343 -36.939 -31.556  0.00  0.00    -0.315 N 
ATOM     27  H   UNL A   1      40.103 -37.675 -30.948  0.00  0.00    +0.000 HD
BRANCH  24  28
ATOM     28  C   UNL A   1      38.203 -35.975 -30.931  0.00  0.00    +0.028 C 
BRANCH  28  29
ATOM     29  C   UNL A   1      38.402 -37.019 -29.836  0.00  0.00    -0.019 C 
BRANCH  29  32
ATOM     30  C   UNL A   1      35.679 -39.078 -28.134  0.00  0.00    +0.165 A 
ATOM     31  C   UNL A   1      36.859 -38.734 -28.801  0.00  0.00    -0.013 A 
ATOM     32  C   UNL A   1      37.114 -37.403 -29.154  0.00  0.00    -0.040 A 
ATOM     33  C   UNL A   1      36.164 -36.414 -28.856  0.00  0.00    -0.013 A 
ATOM     34  C   UNL A   1      34.976 -36.734 -28.190  0.00  0.00    +0.165 A 
ATOM     35  C   UNL A   1      34.735 -38.075 -27.840  0.00  0.00    +0.204 A 
BRANCH  30  37
ATOM     36  C   UNL A   1      35.703 -41.420 -28.612  0.00  0.00    +0.079 C 
ATOM     37  O   UNL A   1      35.348 -40.353 -27.746  0.00  0.00    -0.491 OA
ENDBRANCH  30  37
BRANCH  34  38
ATOM     38  O   UNL A   1      34.034 -35.809 -27.820  0.00  0.00    -0.491 OA
ATOM     39  C   UNL A   1      33.322 -35.138 -28.851  0.00  0.00    +0.079 C 
ENDBRANCH  34  38
BRANCH  35  40
ATOM     40  O   UNL A   1      33.624 -38.467 -27.123  0.00  0.00    -0.488 OA
ATOM     41  C   UNL A   1      32.507 -38.789 -27.947  0.00  0.00    +0.079 C 
ENDBRANCH  35  40
ENDBRANCH  29  32
ENDBRANCH  28  29
ENDBRANCH  24  28
ENDBRANCH  23  26
ENDBRANCH  22  23
ENDBRANCH   1  22
TORSDOF 12
ENDMDL
MODEL 3
REMARK VINA RESULT:    -9.112     15.859     18.790
REMARK INTER + INTRA:         -16.141
REMARK INTER:                 -14.342
REMARK INTRA:                  -1.799
REMARK UNBOUND:                -0.637
REMARK  Name = cpd95.pdb
REMARK  15 active torsions:
REMARK  status: ('A' for Active; 'I' for Inactive)
REMARK    1  A    between atoms: C_1  and  O_2
REMARK    2  A    between atoms: O_2  and  C_3
REMARK    3  A    between atoms: C_5  and  C_6
REMARK    4  A    between atoms: C_6  and  C_7
REMARK    5  A    between atoms: C_7  and  C_8
REMARK    6  A    between atoms: N_10  and  C_11
REMARK    7  A    between atoms: C_11  and  C_12
REMARK    8  A    between atoms: C_12  and  C_13
REMARK    9  A    between atoms: C_13  and  C_14
REMARK   10  A    between atoms: N_16  and  N_17
REMARK   11  A    between atoms: N_17  and  C_18
REMARK   12  A    between atoms: C_33  and  O_34
REMARK   13  A    between atoms: O_34  and  C_35
REMARK   14  A    between atoms: C_36  and  O_37
REMARK   15  A    between atoms: O_37  and  C_38
REMARK                            x       y       z     vdW  Elec       q    Type
REMARK                         _______ _______ _______ _____ _____    ______ ____
ROOT
ATOM      1  C   UNL A   1      47.459 -17.567 -35.829  0.00  0.00    +0.027 C 
ENDROOT
BRANCH   1   2
ATOM      2  C   UNL A   1      47.245 -19.043 -36.086  0.00  0.00    +0.229 C 
ATOM      3  O   UNL A   1      47.067 -19.857 -35.183  0.00  0.00    -0.274 OA
ATOM      4  N   UNL A   1      47.258 -19.385 -37.426  0.00  0.00    -0.236 N 
ATOM      5  H   UNL A   1      47.362 -18.705 -38.130  0.00  0.00    +0.000 HD
BRANCH   4   6
ATOM      6  N   UNL A   1      47.118 -20.748 -37.738  0.00  0.00    -0.264 N 
ATOM      7  H   UNL A   1      47.561 -21.456 -37.217  0.00  0.00    +0.000 HD
BRANCH   6   8
ATOM      8  C   UNL A   1      46.277 -21.034 -38.877  0.00  0.00    +0.058 A 
ATOM      9  C   UNL A   1      46.763 -21.650 -40.063  0.00  0.00    -0.003 A 
ATOM     10  C   UNL A   1      45.822 -21.991 -41.043  0.00  0.00    +0.047 A 
ATOM     11  N   UNL A   1      44.499 -21.740 -40.932  0.00  0.00    -0.251 NA
ATOM     12  C   UNL A   1      44.031 -21.200 -39.806  0.00  0.00    +0.073 A 
ATOM     13  C   UNL A   1      42.657 -21.014 -39.726  0.00  0.00    -0.036 A 
ATOM     14  C   UNL A   1      42.044 -20.495 -38.587  0.00  0.00    -0.060 A 
ATOM     15  C   UNL A   1      42.824 -20.155 -37.496  0.00  0.00    -0.061 A 
ATOM     16  C   UNL A   1      44.210 -20.328 -37.560  0.00  0.00    -0.051 A 
ATOM     17  C   UNL A   1      44.856 -20.845 -38.720  0.00  0.00    +0.023 A 
ATOM     18  C   UNL A   1      46.212 -22.676 -42.327  0.00  0.00    -0.010 C 
ATOM     19  C   UNL A   1      47.487 -23.493 -42.185  0.00  0.00    -0.047 C 
ATOM     20  C   UNL A   1      48.581 -22.595 -41.646  0.00  0.00    -0.049 C 
ATOM     21  C   UNL A   1      48.214 -22.025 -40.274  0.00  0.00    -0.024 C 
ENDBRANCH   6   8
ENDBRANCH   4   6
ENDBRANCH   1   2
BRANCH   1  22
ATOM     22  C   UNL A   1      46.255 -16.721 -36.218  0.00  0.00    -0.029 C 
BRANCH  22  23
ATOM     23  C   UNL A   1      45.298 -16.466 -35.052  0.00  0.00    +0.012 C 
BRANCH  23  26
ATOM     24  C   UNL A   1      44.610 -18.314 -33.580  0.00  0.00    +0.213 C 
ATOM     25  O   UNL A   1      45.238 -17.881 -32.622  0.00  0.00    -0.276 OA
ATOM     26  N   UNL A   1      44.501 -17.644 -34.780  0.00  0.00    -0.315 N 
ATOM     27  H   UNL A   1      43.870 -17.971 -35.462  0.00  0.00    +0.000 HD
BRANCH  24  28
ATOM     28  C   UNL A   1      43.940 -19.669 -33.561  0.00  0.00    +0.028 C 
BRANCH  28  29
ATOM     29  C   UNL A   1      42.477 -19.505 -33.159  0.00  0.00    -0.019 C 
BRANCH  29  32
ATOM     30  C   UNL A   1      40.733 -22.867 -32.707  0.00  0.00    +0.165 A 
ATOM     31  C   UNL A   1      41.528 -21.743 -32.464  0.00  0.00    -0.013 A 
ATOM     32  C   UNL A   1      41.655 -20.738 -33.431  0.00  0.00    -0.040 A 
ATOM     33  C   UNL A   1      40.996 -20.876 -34.662  0.00  0.00    -0.013 A 
ATOM     34  C   UNL A   1      40.195 -21.991 -34.930  0.00  0.00    +0.165 A 
ATOM     35  C   UNL A   1      40.076 -22.992 -33.947  0.00  0.00    +0.204 A 
BRANCH  30  37
ATOM     36  C   UNL A   1      41.583 -24.158 -30.885  0.00  0.00    +0.079 C 
ATOM     37  O   UNL A   1      40.546 -23.896 -31.819  0.00  0.00    -0.491 OA
ENDBRANCH  30  37
BRANCH  34  38
ATOM     38  O   UNL A   1      39.481 -22.160 -36.088  0.00  0.00    -0.491 OA
ATOM     39  C   UNL A   1      38.814 -21.028 -36.628  0.00  0.00    +0.079 C 
ENDBRANCH  34  38
BRANCH  35  40
ATOM     40  O   UNL A   1      39.254 -24.089 -34.101  0.00  0.00    -0.488 OA
ATOM     41  C   UNL A   1      37.938 -23.882 -33.598  0.00  0.00    +0.079 C 
ENDBRANCH  35  40
ENDBRANCH  29  32
ENDBRANCH  28  29
ENDBRANCH  24  28
ENDBRANCH  23  26
ENDBRANCH  22  23
ENDBRANCH   1  22
TORSDOF 12
ENDMDL
MODEL 4
REMARK VINA RESULT:    -9.050     15.860     18.754
REMARK INTER + INTRA:         -16.036
REMARK INTER:                 -14.454
REMARK INTRA:                  -1.582
REMARK UNBOUND:                -0.637
REMARK  Name = cpd95.pdb
REMARK  15 active torsions:
REMARK  status: ('A' for Active; 'I' for Inactive)
REMARK    1  A    between atoms: C_1  and  O_2
REMARK    2  A    between atoms: O_2  and  C_3
REMARK    3  A    between atoms: C_5  and  C_6
REMARK    4  A    between atoms: C_6  and  C_7
REMARK    5  A    between atoms: C_7  and  C_8
REMARK    6  A    between atoms: N_10  and  C_11
REMARK    7  A    between atoms: C_11  and  C_12
REMARK    8  A    between atoms: C_12  and  C_13
REMARK    9  A    between atoms: C_13  and  C_14
REMARK   10  A    between atoms: N_16  and  N_17
REMARK   11  A    between atoms: N_17  and  C_18
REMARK   12  A    between atoms: C_33  and  O_34
REMARK   13  A    between atoms: O_34  and  C_35
REMARK   14  A    between atoms: C_36  and  O_37
REMARK   15  A    between atoms: O_37  and  C_38
REMARK                            x       y       z     vdW  Elec       q    Type
REMARK                         _______ _______ _______ _____ _____    ______ ____
ROOT
ATOM      1  C   UNL A   1      47.378 -17.645 -35.987  0.00  0.00    +0.027 C 
ENDROOT
BRANCH   1   2
ATOM      2  C   UNL A   1      47.253 -19.137 -36.208  0.00  0.00    +0.229 C 
ATOM      3  O   UNL A   1      47.150 -19.941 -35.285  0.00  0.00    -0.274 OA
ATOM      4  N   UNL A   1      47.255 -19.507 -37.541  0.00  0.00    -0.236 N 
ATOM      5  H   UNL A   1      47.296 -18.837 -38.262  0.00  0.00    +0.000 HD
BRANCH   4   6
ATOM      6  N   UNL A   1      47.195 -20.882 -37.821  0.00  0.00    -0.264 N 
ATOM      7  H   UNL A   1      47.743 -21.543 -37.340  0.00  0.00    +0.000 HD
BRANCH   6   8
ATOM      8  C   UNL A   1      46.270 -21.256 -38.866  0.00  0.00    +0.058 A 
ATOM      9  C   UNL A   1      44.909 -20.845 -38.881  0.00  0.00    -0.003 A 
ATOM     10  C   UNL A   1      44.152 -21.165 -40.015  0.00  0.00    +0.047 A 
ATOM     11  N   UNL A   1      44.634 -21.862 -41.067  0.00  0.00    -0.251 NA
ATOM     12  C   UNL A   1      45.920 -22.215 -41.078  0.00  0.00    +0.073 A 
ATOM     13  C   UNL A   1      46.375 -22.883 -42.209  0.00  0.00    -0.036 A 
ATOM     14  C   UNL A   1      47.705 -23.269 -42.356  0.00  0.00    -0.060 A 
ATOM     15  C   UNL A   1      48.608 -22.980 -41.349  0.00  0.00    -0.061 A 
ATOM     16  C   UNL A   1      48.169 -22.315 -40.201  0.00  0.00    -0.051 A 
ATOM     17  C   UNL A   1      46.810 -21.923 -40.025  0.00  0.00    +0.023 A 
ATOM     18  C   UNL A   1      42.709 -20.755 -40.159  0.00  0.00    -0.010 C 
ATOM     19  C   UNL A   1      42.376 -19.509 -39.354  0.00  0.00    -0.047 C 
ATOM     20  C   UNL A   1      42.777 -19.741 -37.911  0.00  0.00    -0.049 C 
ATOM     21  C   UNL A   1      44.277 -20.016 -37.784  0.00  0.00    -0.024 C 
ENDBRANCH   6   8
ENDBRANCH   4   6
ENDBRANCH   1   2
BRANCH   1  22
ATOM     22  C   UNL A   1      46.147 -16.877 -36.449  0.00  0.00    -0.029 C 
BRANCH  22  23
ATOM     23  C   UNL A   1      45.165 -16.578 -35.316  0.00  0.00    +0.012 C 
BRANCH  23  26
ATOM     24  C   UNL A   1      44.530 -18.449 -33.849  0.00  0.00    +0.213 C 
ATOM     25  O   UNL A   1      45.232 -18.057 -32.924  0.00  0.00    -0.276 OA
ATOM     26  N   UNL A   1      44.357 -17.743 -35.020  0.00  0.00    -0.315 N 
ATOM     27  H   UNL A   1      43.674 -18.035 -35.667  0.00  0.00    +0.000 HD
BRANCH  24  28
ATOM     28  C   UNL A   1      43.827 -19.786 -33.819  0.00  0.00    +0.028 C 
BRANCH  28  29
ATOM     29  C   UNL A   1      42.406 -19.601 -33.294  0.00  0.00    -0.019 C 
BRANCH  29  32
ATOM     30  C   UNL A   1      40.656 -22.958 -32.825  0.00  0.00    +0.165 A 
ATOM     31  C   UNL A   1      41.498 -21.861 -32.615  0.00  0.00    -0.013 A 
ATOM     32  C   UNL A   1      41.533 -20.806 -33.535  0.00  0.00    -0.040 A 
ATOM     33  C   UNL A   1      40.734 -20.865 -34.687  0.00  0.00    -0.013 A 
ATOM     34  C   UNL A   1      39.885 -21.952 -34.920  0.00  0.00    +0.165 A 
ATOM     35  C   UNL A   1      39.859 -23.004 -33.986  0.00  0.00    +0.204 A 
BRANCH  30  37
ATOM     36  C   UNL A   1      41.673 -24.342 -31.163  0.00  0.00    +0.079 C 
ATOM     37  O   UNL A   1      40.552 -24.033 -31.978  0.00  0.00    -0.491 OA
ENDBRANCH  30  37
BRANCH  34  38
ATOM     38  O   UNL A   1      39.040 -22.045 -35.995  0.00  0.00    -0.491 OA
ATOM     39  C   UNL A   1      39.487 -21.522 -37.239  0.00  0.00    +0.079 C 
ENDBRANCH  34  38
BRANCH  35  40
ATOM     40  O   UNL A   1      39.003 -24.079 -34.103  0.00  0.00    -0.488 OA
ATOM     41  C   UNL A   1      37.739 -23.863 -33.481  0.00  0.00    +0.079 C 
ENDBRANCH  35  40
ENDBRANCH  29  32
ENDBRANCH  28  29
ENDBRANCH  24  28
ENDBRANCH  23  26
ENDBRANCH  22  23
ENDBRANCH   1  22
TORSDOF 12
ENDMDL
MODEL 5
REMARK VINA RESULT:    -8.926      5.640      9.223
REMARK INTER + INTRA:         -15.824
REMARK INTER:                 -13.051
REMARK INTRA:                  -2.773
REMARK UNBOUND:                -0.637
REMARK  Name = cpd95.pdb
REMARK  15 active torsions:
REMARK  status: ('A' for Active; 'I' for Inactive)
REMARK    1  A    between atoms: C_1  and  O_2
REMARK    2  A    between atoms: O_2  and  C_3
REMARK    3  A    between atoms: C_5  and  C_6
REMARK    4  A    between atoms: C_6  and  C_7
REMARK    5  A    between atoms: C_7  and  C_8
REMARK    6  A    between atoms: N_10  and  C_11
REMARK    7  A    between atoms: C_11  and  C_12
REMARK    8  A    between atoms: C_12  and  C_13
REMARK    9  A    between atoms: C_13  and  C_14
REMARK   10  A    between atoms: N_16  and  N_17
REMARK   11  A    between atoms: N_17  and  C_18
REMARK   12  A    between atoms: C_33  and  O_34
REMARK   13  A    between atoms: O_34  and  C_35
REMARK   14  A    between atoms: C_36  and  O_37
REMARK   15  A    between atoms: O_37  and  C_38
REMARK                            x       y       z     vdW  Elec       q    Type
REMARK                         _______ _______ _______ _____ _____    ______ ____
ROOT
ATOM      1  C   UNL A   1      34.673 -32.310 -31.028  0.00  0.00    +0.027 C 
ENDROOT
BRANCH   1   2
ATOM      2  C   UNL A   1      34.814 -33.739 -31.504  0.00  0.00    +0.229 C 
ATOM      3  O   UNL A   1      33.848 -34.455 -31.758  0.00  0.00    -0.274 OA
ATOM      4  N   UNL A   1      36.126 -34.158 -31.636  0.00  0.00    -0.236 N 
ATOM      5  H   UNL A   1      36.880 -33.549 -31.465  0.00  0.00    +0.000 HD
BRANCH   4   6
ATOM      6  N   UNL A   1      36.333 -35.493 -32.023  0.00  0.00    -0.264 N 
ATOM      7  H   UNL A   1      35.838 -35.910 -32.765  0.00  0.00    +0.000 HD
BRANCH   6   8
ATOM      8  C   UNL A   1      37.324 -36.208 -31.254  0.00  0.00    +0.058 A 
ATOM      9  C   UNL A   1      38.683 -36.322 -31.655  0.00  0.00    -0.003 A 
ATOM     10  C   UNL A   1      39.571 -36.929 -30.758  0.00  0.00    +0.047 A 
ATOM     11  N   UNL A   1      39.200 -37.433 -29.561  0.00  0.00    -0.251 NA
ATOM     12  C   UNL A   1      37.936 -37.293 -29.160  0.00  0.00    +0.073 A 
ATOM     13  C   UNL A   1      37.623 -37.782 -27.898  0.00  0.00    -0.036 A 
ATOM     14  C   UNL A   1      36.347 -37.661 -27.352  0.00  0.00    -0.060 A 
ATOM     15  C   UNL A   1      35.355 -37.033 -28.084  0.00  0.00    -0.061 A 
ATOM     16  C   UNL A   1      35.649 -36.541 -29.359  0.00  0.00    -0.051 A 
ATOM     17  C   UNL A   1      36.943 -36.666 -29.940  0.00  0.00    +0.023 A 
ATOM     18  C   UNL A   1      41.040 -37.078 -31.059  0.00  0.00    -0.010 C 
ATOM     19  C   UNL A   1      41.546 -36.016 -32.021  0.00  0.00    -0.047 C 
ATOM     20  C   UNL A   1      40.688 -36.043 -33.270  0.00  0.00    -0.049 C 
ATOM     21  C   UNL A   1      39.221 -35.749 -32.949  0.00  0.00    -0.024 C 
ENDBRANCH   6   8
ENDBRANCH   4   6
ENDBRANCH   1   2
BRANCH   1  22
ATOM     22  C   UNL A   1      33.935 -32.203 -29.700  0.00  0.00    -0.029 C 
BRANCH  22  23
ATOM     23  C   UNL A   1      32.460 -31.836 -29.860  0.00  0.00    +0.012 C 
BRANCH  23  26
ATOM     24  C   UNL A   1      31.221 -33.803 -29.049  0.00  0.00    +0.213 C 
ATOM     25  O   UNL A   1      31.320 -33.471 -27.874  0.00  0.00    -0.276 OA
ATOM     26  N   UNL A   1      31.662 -33.021 -30.096  0.00  0.00    -0.315 N 
ATOM     27  H   UNL A   1      31.431 -33.273 -31.020  0.00  0.00    +0.000 HD
BRANCH  24  28
ATOM     28  C   UNL A   1      30.660 -35.142 -29.467  0.00  0.00    +0.028 C 
BRANCH  28  29
ATOM     29  C   UNL A   1      31.155 -36.220 -28.507  0.00  0.00    -0.019 C 
BRANCH  29  32
ATOM     30  C   UNL A   1      32.948 -38.252 -31.191  0.00  0.00    +0.165 A 
ATOM     31  C   UNL A   1      32.246 -37.224 -30.555  0.00  0.00    -0.013 A 
ATOM     32  C   UNL A   1      31.874 -37.342 -29.210  0.00  0.00    -0.040 A 
ATOM     33  C   UNL A   1      32.190 -38.514 -28.505  0.00  0.00    -0.013 A 
ATOM     34  C   UNL A   1      32.891 -39.557 -29.120  0.00  0.00    +0.165 A 
ATOM     35  C   UNL A   1      33.259 -39.423 -30.471  0.00  0.00    +0.204 A 
BRANCH  30  37
ATOM     36  C   UNL A   1      32.539 -37.527 -33.431  0.00  0.00    +0.079 C 
ATOM     37  O   UNL A   1      33.356 -38.222 -32.501  0.00  0.00    -0.491 OA
ENDBRANCH  30  37
BRANCH  34  38
ATOM     38  O   UNL A   1      33.278 -40.702 -28.474  0.00  0.00    -0.491 OA
ATOM     39  C   UNL A   1      33.570 -40.616 -27.086  0.00  0.00    +0.079 C 
ENDBRANCH  34  38
BRANCH  35  40
ATOM     40  O   UNL A   1      34.009 -40.372 -31.134  0.00  0.00    -0.488 OA
ATOM     41  C   UNL A   1      33.218 -41.345 -31.809  0.00  0.00    +0.079 C 
ENDBRANCH  35  40
ENDBRANCH  29  32
ENDBRANCH  28  29
ENDBRANCH  24  28
ENDBRANCH  23  26
ENDBRANCH  22  23
ENDBRANCH   1  22
TORSDOF 12
ENDMDL
MODEL 6
REMARK VINA RESULT:    -8.888      5.812      9.489
REMARK INTER + INTRA:         -15.761
REMARK INTER:                 -13.935
REMARK INTRA:                  -1.825
REMARK UNBOUND:                -0.637
REMARK  Name = cpd95.pdb
REMARK  15 active torsions:
REMARK  status: ('A' for Active; 'I' for Inactive)
REMARK    1  A    between atoms: C_1  and  O_2
REMARK    2  A    between atoms: O_2  and  C_3
REMARK    3  A    between atoms: C_5  and  C_6
REMARK    4  A    between atoms: C_6  and  C_7
REMARK    5  A    between atoms: C_7  and  C_8
REMARK    6  A    between atoms: N_10  and  C_11
REMARK    7  A    between atoms: C_11  and  C_12
REMARK    8  A    between atoms: C_12  and  C_13
REMARK    9  A    between atoms: C_13  and  C_14
REMARK   10  A    between atoms: N_16  and  N_17
REMARK   11  A    between atoms: N_17  and  C_18
REMARK   12  A    between atoms: C_33  and  O_34
REMARK   13  A    between atoms: O_34  and  C_35
REMARK   14  A    between atoms: C_36  and  O_37
REMARK   15  A    between atoms: O_37  and  C_38
REMARK                            x       y       z     vdW  Elec       q    Type
REMARK                         _______ _______ _______ _____ _____    ______ ____
ROOT
ATOM      1  C   UNL A   1      34.307 -32.195 -30.378  0.00  0.00    +0.027 C 
ENDROOT
BRANCH   1   2
ATOM      2  C   UNL A   1      34.595 -33.455 -31.163  0.00  0.00    +0.229 C 
ATOM      3  O   UNL A   1      33.738 -34.040 -31.821  0.00  0.00    -0.274 OA
ATOM      4  N   UNL A   1      35.909 -33.880 -31.078  0.00  0.00    -0.236 N 
ATOM      5  H   UNL A   1      36.584 -33.368 -30.577  0.00  0.00    +0.000 HD
BRANCH   4   6
ATOM      6  N   UNL A   1      36.237 -35.075 -31.740  0.00  0.00    -0.264 N 
ATOM      7  H   UNL A   1      35.876 -35.303 -32.627  0.00  0.00    +0.000 HD
BRANCH   6   8
ATOM      8  C   UNL A   1      37.141 -35.944 -31.024  0.00  0.00    +0.058 A 
ATOM      9  C   UNL A   1      38.482 -36.178 -31.437  0.00  0.00    -0.003 A 
ATOM     10  C   UNL A   1      39.295 -36.937 -30.586  0.00  0.00    +0.047 A 
ATOM     11  N   UNL A   1      38.867 -37.477 -29.424  0.00  0.00    -0.251 NA
ATOM     12  C   UNL A   1      37.624 -37.228 -29.011  0.00  0.00    +0.073 A 
ATOM     13  C   UNL A   1      37.255 -37.764 -27.783  0.00  0.00    -0.036 A 
ATOM     14  C   UNL A   1      35.998 -37.542 -27.225  0.00  0.00    -0.060 A 
ATOM     15  C   UNL A   1      35.083 -36.762 -27.910  0.00  0.00    -0.061 A 
ATOM     16  C   UNL A   1      35.433 -36.220 -29.150  0.00  0.00    -0.051 A 
ATOM     17  C   UNL A   1      36.709 -36.446 -29.743  0.00  0.00    +0.023 A 
ATOM     18  C   UNL A   1      40.740 -37.224 -30.902  0.00  0.00    -0.010 C 
ATOM     19  C   UNL A   1      41.362 -36.160 -31.792  0.00  0.00    -0.047 C 
ATOM     20  C   UNL A   1      40.511 -36.010 -33.037  0.00  0.00    -0.049 C 
ATOM     21  C   UNL A   1      39.084 -35.581 -32.691  0.00  0.00    -0.024 C 
ENDBRANCH   6   8
ENDBRANCH   4   6
ENDBRANCH   1   2
BRANCH   1  22
ATOM     22  C   UNL A   1      32.963 -31.574 -30.735  0.00  0.00    -0.029 C 
BRANCH  22  23
ATOM     23  C   UNL A   1      31.899 -31.782 -29.656  0.00  0.00    +0.012 C 
BRANCH  23  26
ATOM     24  C   UNL A   1      31.265 -34.152 -29.472  0.00  0.00    +0.213 C 
ATOM     25  O   UNL A   1      30.558 -34.116 -30.472  0.00  0.00    -0.276 OA
ATOM     26  N   UNL A   1      32.035 -33.089 -29.050  0.00  0.00    -0.315 N 
ATOM     27  H   UNL A   1      32.688 -33.221 -28.325  0.00  0.00    +0.000 HD
BRANCH  24  28
ATOM     28  C   UNL A   1      31.314 -35.356 -28.560  0.00  0.00    +0.028 C 
BRANCH  28  29
ATOM     29  C   UNL A   1      31.814 -34.929 -27.183  0.00  0.00    -0.019 C 
BRANCH  29  32
ATOM     30  C   UNL A   1      32.480 -36.952 -24.019  0.00  0.00    +0.165 A 
ATOM     31  C   UNL A   1      32.414 -35.886 -24.921  0.00  0.00    -0.013 A 
ATOM     32  C   UNL A   1      31.927 -36.082 -26.219  0.00  0.00    -0.040 A 
ATOM     33  C   UNL A   1      31.525 -37.365 -26.621  0.00  0.00    -0.013 A 
ATOM     34  C   UNL A   1      31.581 -38.447 -25.737  0.00  0.00    +0.165 A 
ATOM     35  C   UNL A   1      32.072 -38.234 -24.435  0.00  0.00    +0.204 A 
BRANCH  30  37
ATOM     36  C   UNL A   1      34.292 -36.472 -22.536  0.00  0.00    +0.079 C 
ATOM     37  O   UNL A   1      32.938 -36.853 -22.728  0.00  0.00    -0.491 OA
ENDBRANCH  30  37
BRANCH  34  38
ATOM     38  O   UNL A   1      31.153 -39.712 -26.048  0.00  0.00    -0.491 OA
ATOM     39  C   UNL A   1      32.039 -40.554 -26.772  0.00  0.00    +0.079 C 
ENDBRANCH  34  38
BRANCH  35  40
ATOM     40  O   UNL A   1      32.099 -39.229 -23.480  0.00  0.00    -0.488 OA
ATOM     41  C   UNL A   1      33.335 -39.936 -23.437  0.00  0.00    +0.079 C 
ENDBRANCH  35  40
ENDBRANCH  29  32
ENDBRANCH  28  29
ENDBRANCH  24  28
ENDBRANCH  23  26
ENDBRANCH  22  23
ENDBRANCH   1  22
TORSDOF 12
ENDMDL
MODEL 7
REMARK VINA RESULT:    -8.881      5.817      9.306
REMARK INTER + INTRA:         -15.748
REMARK INTER:                 -13.821
REMARK INTRA:                  -1.927
REMARK UNBOUND:                -0.637
REMARK  Name = cpd95.pdb
REMARK  15 active torsions:
REMARK  status: ('A' for Active; 'I' for Inactive)
REMARK    1  A    between atoms: C_1  and  O_2
REMARK    2  A    between atoms: O_2  and  C_3
REMARK    3  A    between atoms: C_5  and  C_6
REMARK    4  A    between atoms: C_6  and  C_7
REMARK    5  A    between atoms: C_7  and  C_8
REMARK    6  A    between atoms: N_10  and  C_11
REMARK    7  A    between atoms: C_11  and  C_12
REMARK    8  A    between atoms: C_12  and  C_13
REMARK    9  A    between atoms: C_13  and  C_14
REMARK   10  A    between atoms: N_16  and  N_17
REMARK   11  A    between atoms: N_17  and  C_18
REMARK   12  A    between atoms: C_33  and  O_34
REMARK   13  A    between atoms: O_34  and  C_35
REMARK   14  A    between atoms: C_36  and  O_37
REMARK   15  A    between atoms: O_37  and  C_38
REMARK                            x       y       z     vdW  Elec       q    Type
REMARK                         _______ _______ _______ _____ _____    ______ ____
ROOT
ATOM      1  C   UNL A   1      34.260 -32.142 -30.396  0.00  0.00    +0.027 C 
ENDROOT
BRANCH   1   2
ATOM      2  C   UNL A   1      34.659 -33.414 -31.111  0.00  0.00    +0.229 C 
ATOM      3  O   UNL A   1      33.845 -34.151 -31.663  0.00  0.00    -0.274 OA
ATOM      4  N   UNL A   1      36.019 -33.664 -31.092  0.00  0.00    -0.236 N 
ATOM      5  H   UNL A   1      36.653 -33.035 -30.677  0.00  0.00    +0.000 HD
BRANCH   4   6
ATOM      6  N   UNL A   1      36.457 -34.857 -31.692  0.00  0.00    -0.264 N 
ATOM      7  H   UNL A   1      36.192 -35.118 -32.603  0.00  0.00    +0.000 HD
BRANCH   6   8
ATOM      8  C   UNL A   1      37.323 -35.674 -30.873  0.00  0.00    +0.058 A 
ATOM      9  C   UNL A   1      36.891 -36.300 -29.672  0.00  0.00    -0.003 A 
ATOM     10  C   UNL A   1      37.789 -37.170 -29.041  0.00  0.00    +0.047 A 
ATOM     11  N   UNL A   1      39.037 -37.417 -29.493  0.00  0.00    -0.251 NA
ATOM     12  C   UNL A   1      39.435 -36.866 -30.640  0.00  0.00    +0.073 A 
ATOM     13  C   UNL A   1      40.709 -37.198 -31.084  0.00  0.00    -0.036 A 
ATOM     14  C   UNL A   1      41.223 -36.717 -32.287  0.00  0.00    -0.060 A 
ATOM     15  C   UNL A   1      40.443 -35.885 -33.070  0.00  0.00    -0.061 A 
ATOM     16  C   UNL A   1      39.161 -35.534 -32.637  0.00  0.00    -0.051 A 
ATOM     17  C   UNL A   1      38.623 -36.004 -31.404  0.00  0.00    +0.023 A 
ATOM     18  C   UNL A   1      37.433 -37.915 -27.780  0.00  0.00    -0.010 C 
ATOM     19  C   UNL A   1      35.936 -38.142 -27.643  0.00  0.00    -0.047 C 
ATOM     20  C   UNL A   1      35.230 -36.806 -27.751  0.00  0.00    -0.049 C 
ATOM     21  C   UNL A   1      35.498 -36.138 -29.102  0.00  0.00    -0.024 C 
ENDBRANCH   6   8
ENDBRANCH   4   6
ENDBRANCH   1   2
BRANCH   1  22
ATOM     22  C   UNL A   1      32.864 -31.667 -30.776  0.00  0.00    -0.029 C 
BRANCH  22  23
ATOM     23  C   UNL A   1      31.832 -31.887 -29.669  0.00  0.00    +0.012 C 
BRANCH  23  26
ATOM     24  C   UNL A   1      31.255 -34.266 -29.421  0.00  0.00    +0.213 C 
ATOM     25  O   UNL A   1      30.509 -34.261 -30.393  0.00  0.00    -0.276 OA
ATOM     26  N   UNL A   1      32.019 -33.180 -29.047  0.00  0.00    -0.315 N 
ATOM     27  H   UNL A   1      32.702 -33.287 -28.346  0.00  0.00    +0.000 HD
BRANCH  24  28
ATOM     28  C   UNL A   1      31.364 -35.452 -28.491  0.00  0.00    +0.028 C 
BRANCH  28  29
ATOM     29  C   UNL A   1      31.967 -35.002 -27.163  0.00  0.00    -0.019 C 
BRANCH  29  32
ATOM     30  C   UNL A   1      32.382 -36.840 -23.847  0.00  0.00    +0.165 A 
ATOM     31  C   UNL A   1      32.468 -35.857 -24.837  0.00  0.00    -0.013 A 
ATOM     32  C   UNL A   1      31.915 -36.074 -26.105  0.00  0.00    -0.040 A 
ATOM     33  C   UNL A   1      31.293 -37.300 -26.388  0.00  0.00    -0.013 A 
ATOM     34  C   UNL A   1      31.196 -38.299 -25.415  0.00  0.00    +0.165 A 
ATOM     35  C   UNL A   1      31.754 -38.066 -24.144  0.00  0.00    +0.204 A 
BRANCH  30  37
ATOM     36  C   UNL A   1      34.301 -36.638 -22.435  0.00  0.00    +0.079 C 
ATOM     37  O   UNL A   1      32.890 -36.714 -22.577  0.00  0.00    -0.491 OA
ENDBRANCH  30  37
BRANCH  34  38
ATOM     38  O   UNL A   1      30.553 -39.495 -25.608  0.00  0.00    -0.491 OA
ATOM     39  C   UNL A   1      29.138 -39.476 -25.729  0.00  0.00    +0.079 C 
ENDBRANCH  34  38
BRANCH  35  40
ATOM     40  O   UNL A   1      31.644 -38.968 -23.107  0.00  0.00    -0.488 OA
ATOM     41  C   UNL A   1      32.665 -39.962 -23.114  0.00  0.00    +0.079 C 
ENDBRANCH  35  40
ENDBRANCH  29  32
ENDBRANCH  28  29
ENDBRANCH  24  28
ENDBRANCH  23  26
ENDBRANCH  22  23
ENDBRANCH   1  22
TORSDOF 12
ENDMDL
MODEL 8
REMARK VINA RESULT:    -8.755      5.579      8.979
REMARK INTER + INTRA:         -15.534
REMARK INTER:                 -13.243
REMARK INTRA:                  -2.291
REMARK UNBOUND:                -0.637
REMARK  Name = cpd95.pdb
REMARK  15 active torsions:
REMARK  status: ('A' for Active; 'I' for Inactive)
REMARK    1  A    between atoms: C_1  and  O_2
REMARK    2  A    between atoms: O_2  and  C_3
REMARK    3  A    between atoms: C_5  and  C_6
REMARK    4  A    between atoms: C_6  and  C_7
REMARK    5  A    between atoms: C_7  and  C_8
REMARK    6  A    between atoms: N_10  and  C_11
REMARK    7  A    between atoms: C_11  and  C_12
REMARK    8  A    between atoms: C_12  and  C_13
REMARK    9  A    between atoms: C_13  and  C_14
REMARK   10  A    between atoms: N_16  and  N_17
REMARK   11  A    between atoms: N_17  and  C_18
REMARK   12  A    between atoms: C_33  and  O_34
REMARK   13  A    between atoms: O_34  and  C_35
REMARK   14  A    between atoms: C_36  and  O_37
REMARK   15  A    between atoms: O_37  and  C_38
REMARK                            x       y       z     vdW  Elec       q    Type
REMARK                         _______ _______ _______ _____ _____    ______ ____
ROOT
ATOM      1  C   UNL A   1      33.408 -36.042 -32.996  0.00  0.00    +0.027 C 
ENDROOT
BRANCH   1   2
ATOM      2  C   UNL A   1      34.449 -35.260 -32.225  0.00  0.00    +0.229 C 
ATOM      3  O   UNL A   1      34.170 -34.290 -31.526  0.00  0.00    -0.274 OA
ATOM      4  N   UNL A   1      35.737 -35.744 -32.375  0.00  0.00    -0.236 N 
ATOM      5  H   UNL A   1      35.925 -36.549 -32.909  0.00  0.00    +0.000 HD
BRANCH   4   6
ATOM      6  N   UNL A   1      36.763 -35.035 -31.729  0.00  0.00    -0.264 N 
ATOM      7  H   UNL A   1      36.848 -34.056 -31.792  0.00  0.00    +0.000 HD
BRANCH   6   8
ATOM      8  C   UNL A   1      37.685 -35.846 -30.968  0.00  0.00    +0.058 A 
ATOM      9  C   UNL A   1      37.330 -36.485 -29.749  0.00  0.00    -0.003 A 
ATOM     10  C   UNL A   1      38.273 -37.348 -29.176  0.00  0.00    +0.047 A 
ATOM     11  N   UNL A   1      39.496 -37.577 -29.701  0.00  0.00    -0.251 NA
ATOM     12  C   UNL A   1      39.821 -37.013 -30.865  0.00  0.00    +0.073 A 
ATOM     13  C   UNL A   1      41.071 -37.326 -31.384  0.00  0.00    -0.036 A 
ATOM     14  C   UNL A   1      41.509 -36.831 -32.611  0.00  0.00    -0.060 A 
ATOM     15  C   UNL A   1      40.675 -36.003 -33.342  0.00  0.00    -0.061 A 
ATOM     16  C   UNL A   1      39.416 -35.671 -32.833  0.00  0.00    -0.051 A 
ATOM     17  C   UNL A   1      38.956 -36.156 -31.575  0.00  0.00    +0.023 A 
ATOM     18  C   UNL A   1      37.999 -38.106 -27.903  0.00  0.00    -0.010 C 
ATOM     19  C   UNL A   1      36.515 -38.353 -27.682  0.00  0.00    -0.047 C 
ATOM     20  C   UNL A   1      35.788 -37.024 -27.739  0.00  0.00    -0.049 C 
ATOM     21  C   UNL A   1      35.970 -36.345 -29.098  0.00  0.00    -0.024 C 
ENDBRANCH   6   8
ENDBRANCH   4   6
ENDBRANCH   1   2
BRANCH   1  22
ATOM     22  C   UNL A   1      33.177 -37.435 -32.426  0.00  0.00    -0.029 C 
BRANCH  22  23
ATOM     23  C   UNL A   1      31.900 -37.538 -31.591  0.00  0.00    +0.012 C 
BRANCH  23  26
ATOM     24  C   UNL A   1      31.693 -36.154 -29.567  0.00  0.00    +0.213 C 
ATOM     25  O   UNL A   1      30.870 -35.403 -30.076  0.00  0.00    -0.276 OA
ATOM     26  N   UNL A   1      32.182 -37.280 -30.194  0.00  0.00    -0.315 N 
ATOM     27  H   UNL A   1      32.731 -37.919 -29.685  0.00  0.00    +0.000 HD
BRANCH  24  28
ATOM     28  C   UNL A   1      32.306 -35.881 -28.213  0.00  0.00    +0.028 C 
BRANCH  28  29
ATOM     29  C   UNL A   1      31.452 -36.533 -27.129  0.00  0.00    -0.019 C 
BRANCH  29  32
ATOM     30  C   UNL A   1      33.007 -38.332 -24.147  0.00  0.00    +0.165 A 
ATOM     31  C   UNL A   1      32.327 -37.381 -24.913  0.00  0.00    -0.013 A 
ATOM     32  C   UNL A   1      32.219 -37.531 -26.302  0.00  0.00    -0.040 A 
ATOM     33  C   UNL A   1      32.821 -38.634 -26.927  0.00  0.00    -0.013 A 
ATOM     34  C   UNL A   1      33.507 -39.599 -26.181  0.00  0.00    +0.165 A 
ATOM     35  C   UNL A   1      33.606 -39.435 -24.787  0.00  0.00    +0.204 A 
BRANCH  30  37
ATOM     36  C   UNL A   1      32.031 -37.887 -22.010  0.00  0.00    +0.079 C 
ATOM     37  O   UNL A   1      33.159 -38.269 -22.784  0.00  0.00    -0.491 OA
ENDBRANCH  30  37
BRANCH  34  38
ATOM     38  O   UNL A   1      34.069 -40.726 -26.722  0.00  0.00    -0.491 OA
ATOM     39  C   UNL A   1      33.620 -41.141 -28.005  0.00  0.00    +0.079 C 
ENDBRANCH  34  38
BRANCH  35  40
ATOM     40  O   UNL A   1      34.205 -40.370 -23.970  0.00  0.00    -0.488 OA
ATOM     41  C   UNL A   1      33.331 -41.430 -23.592  0.00  0.00    +0.079 C 
ENDBRANCH  35  40
ENDBRANCH  29  32
ENDBRANCH  28  29
ENDBRANCH  24  28
ENDBRANCH  23  26
ENDBRANCH  22  23
ENDBRANCH   1  22
TORSDOF 12
ENDMDL
MODEL 9
REMARK VINA RESULT:    -8.217      5.525      9.031
REMARK INTER + INTRA:         -14.619
REMARK INTER:                 -12.523
REMARK INTRA:                  -2.096
REMARK UNBOUND:                -0.637
REMARK  Name = cpd95.pdb
REMARK  15 active torsions:
REMARK  status: ('A' for Active; 'I' for Inactive)
REMARK    1  A    between atoms: C_1  and  O_2
REMARK    2  A    between atoms: O_2  and  C_3
REMARK    3  A    between atoms: C_5  and  C_6
REMARK    4  A    between atoms: C_6  and  C_7
REMARK    5  A    between atoms: C_7  and  C_8
REMARK    6  A    between atoms: N_10  and  C_11
REMARK    7  A    between atoms: C_11  and  C_12
REMARK    8  A    between atoms: C_12  and  C_13
REMARK    9  A    between atoms: C_13  and  C_14
REMARK   10  A    between atoms: N_16  and  N_17
REMARK   11  A    between atoms: N_17  and  C_18
REMARK   12  A    between atoms: C_33  and  O_34
REMARK   13  A    between atoms: O_34  and  C_35
REMARK   14  A    between atoms: C_36  and  O_37
REMARK   15  A    between atoms: O_37  and  C_38
REMARK                            x       y       z     vdW  Elec       q    Type
REMARK                         _______ _______ _______ _____ _____    ______ ____
ROOT
ATOM      1  C   UNL A   1      34.451 -32.787 -29.909  0.00  0.00    +0.027 C 
ENDROOT
BRANCH   1   2
ATOM      2  C   UNL A   1      34.929 -33.967 -30.726  0.00  0.00    +0.229 C 
ATOM      3  O   UNL A   1      34.161 -34.767 -31.255  0.00  0.00    -0.274 OA
ATOM      4  N   UNL A   1      36.306 -34.057 -30.827  0.00  0.00    -0.236 N 
ATOM      5  H   UNL A   1      36.897 -33.378 -30.427  0.00  0.00    +0.000 HD
BRANCH   4   6
ATOM      6  N   UNL A   1      36.824 -35.159 -31.527  0.00  0.00    -0.264 N 
ATOM      7  H   UNL A   1      36.568 -35.363 -32.455  0.00  0.00    +0.000 HD
BRANCH   6   8
ATOM      8  C   UNL A   1      37.759 -35.973 -30.785  0.00  0.00    +0.058 A 
ATOM      9  C   UNL A   1      37.353 -36.972 -29.858  0.00  0.00    -0.003 A 
ATOM     10  C   UNL A   1      38.353 -37.779 -29.302  0.00  0.00    +0.047 A 
ATOM     11  N   UNL A   1      39.669 -37.639 -29.576  0.00  0.00    -0.251 NA
ATOM     12  C   UNL A   1      40.053 -36.733 -30.475  0.00  0.00    +0.073 A 
ATOM     13  C   UNL A   1      41.412 -36.669 -30.756  0.00  0.00    -0.036 A 
ATOM     14  C   UNL A   1      41.932 -35.791 -31.704  0.00  0.00    -0.060 A 
ATOM     15  C   UNL A   1      41.073 -34.954 -32.394  0.00  0.00    -0.061 A 
ATOM     16  C   UNL A   1      39.703 -34.998 -32.119  0.00  0.00    -0.051 A 
ATOM     17  C   UNL A   1      39.153 -35.880 -31.144  0.00  0.00    +0.023 A 
ATOM     18  C   UNL A   1      38.042 -38.890 -28.333  0.00  0.00    -0.010 C 
ATOM     19  C   UNL A   1      36.637 -39.443 -28.516  0.00  0.00    -0.047 C 
ATOM     20  C   UNL A   1      35.649 -38.298 -28.428  0.00  0.00    -0.049 C 
ATOM     21  C   UNL A   1      35.905 -37.253 -29.516  0.00  0.00    -0.024 C 
ENDBRANCH   6   8
ENDBRANCH   4   6
ENDBRANCH   1   2
BRANCH   1  22
ATOM     22  C   UNL A   1      32.962 -32.517 -30.082  0.00  0.00    -0.029 C 
BRANCH  22  23
ATOM     23  C   UNL A   1      32.120 -33.022 -28.909  0.00  0.00    +0.012 C 
BRANCH  23  26
ATOM     24  C   UNL A   1      31.787 -35.458 -28.803  0.00  0.00    +0.213 C 
ATOM     25  O   UNL A   1      30.819 -35.431 -29.553  0.00  0.00    -0.276 OA
ATOM     26  N   UNL A   1      32.546 -34.345 -28.506  0.00  0.00    -0.315 N 
ATOM     27  H   UNL A   1      33.392 -34.453 -28.013  0.00  0.00    +0.000 HD
BRANCH  24  28
ATOM     28  C   UNL A   1      32.210 -36.711 -28.072  0.00  0.00    +0.028 C 
BRANCH  28  29
ATOM     29  C   UNL A   1      33.073 -36.332 -26.872  0.00  0.00    -0.019 C 
BRANCH  29  32
ATOM     30  C   UNL A   1      32.779 -39.654 -25.021  0.00  0.00    +0.165 A 
ATOM     31  C   UNL A   1      32.794 -38.707 -26.049  0.00  0.00    -0.013 A 
ATOM     32  C   UNL A   1      33.013 -37.352 -25.765  0.00  0.00    -0.040 A 
ATOM     33  C   UNL A   1      33.194 -36.945 -24.434  0.00  0.00    -0.013 A 
ATOM     34  C   UNL A   1      33.182 -37.874 -23.388  0.00  0.00    +0.165 A 
ATOM     35  C   UNL A   1      32.963 -39.231 -23.689  0.00  0.00    +0.204 A 
BRANCH  30  37
ATOM     36  C   UNL A   1      33.177 -41.609 -26.337  0.00  0.00    +0.079 C 
ATOM     37  O   UNL A   1      32.576 -40.999 -25.204  0.00  0.00    -0.491 OA
ENDBRANCH  30  37
BRANCH  34  38
ATOM     38  O   UNL A   1      33.408 -37.550 -22.076  0.00  0.00    -0.491 OA
ATOM     39  C   UNL A   1      34.643 -36.929 -21.747  0.00  0.00    +0.079 C 
ENDBRANCH  34  38
BRANCH  35  40
ATOM     40  O   UNL A   1      33.003 -40.220 -22.729  0.00  0.00    -0.488 OA
ATOM     41  C   UNL A   1      34.313 -40.731 -22.500  0.00  0.00    +0.079 C 
ENDBRANCH  35  40
ENDBRANCH  29  32
ENDBRANCH  28  29
ENDBRANCH  24  28
ENDBRANCH  23  26
ENDBRANCH  22  23
ENDBRANCH   1  22
TORSDOF 12
ENDMDL
MODEL 10
REMARK VINA RESULT:    -8.109      6.287     10.785
REMARK INTER + INTRA:         -14.435
REMARK INTER:                 -13.615
REMARK INTRA:                  -0.820
REMARK UNBOUND:                -0.637
REMARK  Name = cpd95.pdb
REMARK  15 active torsions:
REMARK  status: ('A' for Active; 'I' for Inactive)
REMARK    1  A    between atoms: C_1  and  O_2
REMARK    2  A    between atoms: O_2  and  C_3
REMARK    3  A    between atoms: C_5  and  C_6
REMARK    4  A    between atoms: C_6  and  C_7
REMARK    5  A    between atoms: C_7  and  C_8
REMARK    6  A    between atoms: N_10  and  C_11
REMARK    7  A    between atoms: C_11  and  C_12
REMARK    8  A    between atoms: C_12  and  C_13
REMARK    9  A    between atoms: C_13  and  C_14
REMARK   10  A    between atoms: N_16  and  N_17
REMARK   11  A    between atoms: N_17  and  C_18
REMARK   12  A    between atoms: C_33  and  O_34
REMARK   13  A    between atoms: O_34  and  C_35
REMARK   14  A    between atoms: C_36  and  O_37
REMARK   15  A    between atoms: O_37  and  C_38
REMARK                            x       y       z     vdW  Elec       q    Type
REMARK                         _______ _______ _______ _____ _____    ______ ____
ROOT
ATOM      1  C   UNL A   1      34.259 -33.015 -29.941  0.00  0.00    +0.027 C 
ENDROOT
BRANCH   1   2
ATOM      2  C   UNL A   1      34.845 -34.112 -30.801  0.00  0.00    +0.229 C 
ATOM      3  O   UNL A   1      34.152 -34.894 -31.447  0.00  0.00    -0.274 OA
ATOM      4  N   UNL A   1      36.229 -34.146 -30.800  0.00  0.00    -0.236 N 
ATOM      5  H   UNL A   1      36.759 -33.480 -30.305  0.00  0.00    +0.000 HD
BRANCH   4   6
ATOM      6  N   UNL A   1      36.842 -35.173 -31.536  0.00  0.00    -0.264 N 
ATOM      7  H   UNL A   1      36.641 -35.334 -32.486  0.00  0.00    +0.000 HD
BRANCH   6   8
ATOM      8  C   UNL A   1      37.789 -35.976 -30.797  0.00  0.00    +0.058 A 
ATOM      9  C   UNL A   1      37.396 -36.997 -29.888  0.00  0.00    -0.003 A 
ATOM     10  C   UNL A   1      38.409 -37.790 -29.334  0.00  0.00    +0.047 A 
ATOM     11  N   UNL A   1      39.724 -37.617 -29.593  0.00  0.00    -0.251 NA
ATOM     12  C   UNL A   1      40.096 -36.689 -30.476  0.00  0.00    +0.073 A 
ATOM     13  C   UNL A   1      41.456 -36.592 -30.744  0.00  0.00    -0.036 A 
ATOM     14  C   UNL A   1      41.965 -35.689 -31.675  0.00  0.00    -0.060 A 
ATOM     15  C   UNL A   1      41.093 -34.862 -32.360  0.00  0.00    -0.061 A 
ATOM     16  C   UNL A   1      39.722 -34.940 -32.099  0.00  0.00    -0.051 A 
ATOM     17  C   UNL A   1      39.183 -35.847 -31.142  0.00  0.00    +0.023 A 
ATOM     18  C   UNL A   1      38.114 -38.922 -28.384  0.00  0.00    -0.010 C 
ATOM     19  C   UNL A   1      36.724 -39.503 -28.587  0.00  0.00    -0.047 C 
ATOM     20  C   UNL A   1      35.710 -38.381 -28.492  0.00  0.00    -0.049 C 
ATOM     21  C   UNL A   1      35.952 -37.315 -29.564  0.00  0.00    -0.024 C 
ENDBRANCH   6   8
ENDBRANCH   4   6
ENDBRANCH   1   2
BRANCH   1  22
ATOM     22  C   UNL A   1      32.839 -32.644 -30.348  0.00  0.00    -0.029 C 
BRANCH  22  23
ATOM     23  C   UNL A   1      32.501 -31.177 -30.080  0.00  0.00    +0.012 C 
BRANCH  23  26
ATOM     24  C   UNL A   1      30.245 -30.199 -29.982  0.00  0.00    +0.213 C 
ATOM     25  O   UNL A   1      30.369 -29.623 -31.056  0.00  0.00    -0.276 OA
ATOM     26  N   UNL A   1      31.194 -31.057 -29.469  0.00  0.00    -0.315 N 
ATOM     27  H   UNL A   1      30.980 -31.598 -28.674  0.00  0.00    +0.000 HD
BRANCH  24  28
ATOM     28  C   UNL A   1      29.057 -29.972 -29.076  0.00  0.00    +0.028 C 
BRANCH  28  29
ATOM     29  C   UNL A   1      28.251 -28.781 -29.586  0.00  0.00    -0.019 C 
BRANCH  29  32
ATOM     30  C   UNL A   1      28.918 -25.369 -28.017  0.00  0.00    +0.165 A 
ATOM     31  C   UNL A   1      28.960 -26.453 -28.898  0.00  0.00    -0.013 A 
ATOM     32  C   UNL A   1      28.244 -27.624 -28.620  0.00  0.00    -0.040 A 
ATOM     33  C   UNL A   1      27.499 -27.714 -27.434  0.00  0.00    -0.013 A 
ATOM     34  C   UNL A   1      27.442 -26.644 -26.536  0.00  0.00    +0.165 A 
ATOM     35  C   UNL A   1      28.165 -25.473 -26.830  0.00  0.00    +0.204 A 
BRANCH  30  37
ATOM     36  C   UNL A   1      29.301 -23.453 -29.394  0.00  0.00    +0.079 C 
ATOM     37  O   UNL A   1      29.582 -24.183 -28.209  0.00  0.00    -0.491 OA
ENDBRANCH  30  37
BRANCH  34  38
ATOM     38  O   UNL A   1      26.690 -26.646 -25.390  0.00  0.00    -0.491 OA
ATOM     39  C   UNL A   1      25.279 -26.552 -25.521  0.00  0.00    +0.079 C 
ENDBRANCH  34  38
BRANCH  35  40
ATOM     40  O   UNL A   1      28.110 -24.347 -26.035  0.00  0.00    -0.488 OA
ATOM     41  C   UNL A   1      27.060 -23.454 -26.394  0.00  0.00    +0.079 C 
ENDBRANCH  35  40
ENDBRANCH  29  32
ENDBRANCH  28  29
ENDBRANCH  24  28
ENDBRANCH  23  26
ENDBRANCH  22  23
ENDBRANCH   1  22
TORSDOF 12
ENDMDL
MODEL 11
REMARK VINA RESULT:    -7.989     17.993     20.992
REMARK INTER + INTRA:         -14.230
REMARK INTER:                 -11.110
REMARK INTRA:                  -3.120
REMARK UNBOUND:                -0.637
REMARK  Name = cpd95.pdb
REMARK  15 active torsions:
REMARK  status: ('A' for Active; 'I' for Inactive)
REMARK    1  A    between atoms: C_1  and  O_2
REMARK    2  A    between atoms: O_2  and  C_3
REMARK    3  A    between atoms: C_5  and  C_6
REMARK    4  A    between atoms: C_6  and  C_7
REMARK    5  A    between atoms: C_7  and  C_8
REMARK    6  A    between atoms: N_10  and  C_11
REMARK    7  A    between atoms: C_11  and  C_12
REMARK    8  A    between atoms: C_12  and  C_13
REMARK    9  A    between atoms: C_13  and  C_14
REMARK   10  A    between atoms: N_16  and  N_17
REMARK   11  A    between atoms: N_17  and  C_18
REMARK   12  A    between atoms: C_33  and  O_34
REMARK   13  A    between atoms: O_34  and  C_35
REMARK   14  A    between atoms: C_36  and  O_37
REMARK   15  A    between atoms: O_37  and  C_38
REMARK                            x       y       z     vdW  Elec       q    Type
REMARK                         _______ _______ _______ _____ _____    ______ ____
ROOT
ATOM      1  C   UNL A   1      44.679 -14.027 -41.382  0.00  0.00    +0.027 C 
ENDROOT
BRANCH   1   2
ATOM      2  C   UNL A   1      45.846 -14.795 -40.802  0.00  0.00    +0.229 C 
ATOM      3  O   UNL A   1      46.838 -14.244 -40.331  0.00  0.00    -0.274 OA
ATOM      4  N   UNL A   1      45.689 -16.169 -40.845  0.00  0.00    -0.236 N 
ATOM      5  H   UNL A   1      44.865 -16.582 -41.191  0.00  0.00    +0.000 HD
BRANCH   4   6
ATOM      6  N   UNL A   1      46.757 -16.949 -40.372  0.00  0.00    -0.264 N 
ATOM      7  H   UNL A   1      47.697 -16.683 -40.492  0.00  0.00    +0.000 HD
BRANCH   6   8
ATOM      8  C   UNL A   1      46.376 -18.168 -39.698  0.00  0.00    +0.058 A 
ATOM      9  C   UNL A   1      45.929 -19.328 -40.388  0.00  0.00    -0.003 A 
ATOM     10  C   UNL A   1      45.715 -20.486 -39.629  0.00  0.00    +0.047 A 
ATOM     11  N   UNL A   1      45.881 -20.546 -38.290  0.00  0.00    -0.251 NA
ATOM     12  C   UNL A   1      46.340 -19.474 -37.642  0.00  0.00    +0.073 A 
ATOM     13  C   UNL A   1      46.542 -19.610 -36.274  0.00  0.00    -0.036 A 
ATOM     14  C   UNL A   1      47.054 -18.575 -35.494  0.00  0.00    -0.060 A 
ATOM     15  C   UNL A   1      47.376 -17.372 -36.096  0.00  0.00    -0.061 A 
ATOM     16  C   UNL A   1      47.172 -17.214 -37.470  0.00  0.00    -0.051 A 
ATOM     17  C   UNL A   1      46.638 -18.255 -38.282  0.00  0.00    +0.023 A 
ATOM     18  C   UNL A   1      45.271 -21.784 -40.252  0.00  0.00    -0.010 C 
ATOM     19  C   UNL A   1      45.689 -21.901 -41.709  0.00  0.00    -0.047 C 
ATOM     20  C   UNL A   1      45.178 -20.687 -42.460  0.00  0.00    -0.049 C 
ATOM     21  C   UNL A   1      45.759 -19.391 -41.890  0.00  0.00    -0.024 C 
ENDBRANCH   6   8
ENDBRANCH   4   6
ENDBRANCH   1   2
BRANCH   1  22
ATOM     22  C   UNL A   1      43.517 -14.930 -41.775  0.00  0.00    -0.029 C 
BRANCH  22  23
ATOM     23  C   UNL A   1      42.379 -14.923 -40.754  0.00  0.00    +0.012 C 
BRANCH  23  26
ATOM     24  C   UNL A   1      42.856 -16.759 -39.187  0.00  0.00    +0.213 C 
ATOM     25  O   UNL A   1      43.606 -16.075 -38.500  0.00  0.00    -0.276 OA
ATOM     26  N   UNL A   1      42.136 -16.258 -40.251  0.00  0.00    -0.315 N 
ATOM     27  H   UNL A   1      41.446 -16.818 -40.675  0.00  0.00    +0.000 HD
BRANCH  24  28
ATOM     28  C   UNL A   1      42.694 -18.246 -38.971  0.00  0.00    +0.028 C 
BRANCH  28  29
ATOM     29  C   UNL A   1      42.990 -18.581 -37.512  0.00  0.00    -0.019 C 
BRANCH  29  32
ATOM     30  C   UNL A   1      41.311 -21.248 -35.363  0.00  0.00    +0.165 A 
ATOM     31  C   UNL A   1      41.925 -20.054 -35.754  0.00  0.00    -0.013 A 
ATOM     32  C   UNL A   1      42.366 -19.880 -37.073  0.00  0.00    -0.040 A 
ATOM     33  C   UNL A   1      42.210 -20.924 -37.998  0.00  0.00    -0.013 A 
ATOM     34  C   UNL A   1      41.599 -22.127 -37.630  0.00  0.00    +0.165 A 
ATOM     35  C   UNL A   1      41.159 -22.286 -36.303  0.00  0.00    +0.204 A 
BRANCH  30  37
ATOM     36  C   UNL A   1      41.238 -20.623 -33.057  0.00  0.00    +0.079 C 
ATOM     37  O   UNL A   1      40.844 -21.505 -34.098  0.00  0.00    -0.491 OA
ENDBRANCH  30  37
BRANCH  34  38
ATOM     38  O   UNL A   1      41.366 -23.163 -38.498  0.00  0.00    -0.491 OA
ATOM     39  C   UNL A   1      40.426 -22.955 -39.542  0.00  0.00    +0.079 C 
ENDBRANCH  34  38
BRANCH  35  40
ATOM     40  O   UNL A   1      40.487 -23.412 -35.873  0.00  0.00    -0.488 OA
ATOM     41  C   UNL A   1      39.075 -23.321 -36.035  0.00  0.00    +0.079 C 
ENDBRANCH  35  40
ENDBRANCH  29  32
ENDBRANCH  28  29
ENDBRANCH  24  28
ENDBRANCH  23  26
ENDBRANCH  22  23
ENDBRANCH   1  22
TORSDOF 12
ENDMDL
MODEL 12
REMARK VINA RESULT:    -7.907     15.953     19.332
REMARK INTER + INTRA:         -14.092
REMARK INTER:                 -11.536
REMARK INTRA:                  -2.556
REMARK UNBOUND:                -0.637
REMARK  Name = cpd95.pdb
REMARK  15 active torsions:
REMARK  status: ('A' for Active; 'I' for Inactive)
REMARK    1  A    between atoms: C_1  and  O_2
REMARK    2  A    between atoms: O_2  and  C_3
REMARK    3  A    between atoms: C_5  and  C_6
REMARK    4  A    between atoms: C_6  and  C_7
REMARK    5  A    between atoms: C_7  and  C_8
REMARK    6  A    between atoms: N_10  and  C_11
REMARK    7  A    between atoms: C_11  and  C_12
REMARK    8  A    between atoms: C_12  and  C_13
REMARK    9  A    between atoms: C_13  and  C_14
REMARK   10  A    between atoms: N_16  and  N_17
REMARK   11  A    between atoms: N_17  and  C_18
REMARK   12  A    between atoms: C_33  and  O_34
REMARK   13  A    between atoms: O_34  and  C_35
REMARK   14  A    between atoms: C_36  and  O_37
REMARK   15  A    between atoms: O_37  and  C_38
REMARK                            x       y       z     vdW  Elec       q    Type
REMARK                         _______ _______ _______ _____ _____    ______ ____
ROOT
ATOM      1  C   UNL A   1      46.862 -18.641 -35.882  0.00  0.00    +0.027 C 
ENDROOT
BRANCH   1   2
ATOM      2  C   UNL A   1      46.114 -18.345 -37.162  0.00  0.00    +0.229 C 
ATOM      3  O   UNL A   1      46.633 -17.780 -38.122  0.00  0.00    -0.274 OA
ATOM      4  N   UNL A   1      44.799 -18.775 -37.155  0.00  0.00    -0.236 N 
ATOM      5  H   UNL A   1      44.421 -19.262 -36.387  0.00  0.00    +0.000 HD
BRANCH   4   6
ATOM      6  N   UNL A   1      44.026 -18.486 -38.292  0.00  0.00    -0.264 N 
ATOM      7  H   UNL A   1      43.916 -17.570 -38.636  0.00  0.00    +0.000 HD
BRANCH   6   8
ATOM      8  C   UNL A   1      43.406 -19.629 -38.919  0.00  0.00    +0.058 A 
ATOM      9  C   UNL A   1      42.237 -20.256 -38.405  0.00  0.00    -0.003 A 
ATOM     10  C   UNL A   1      41.660 -21.272 -39.177  0.00  0.00    +0.047 A 
ATOM     11  N   UNL A   1      42.167 -21.702 -40.353  0.00  0.00    -0.251 NA
ATOM     12  C   UNL A   1      43.238 -21.091 -40.861  0.00  0.00    +0.073 A 
ATOM     13  C   UNL A   1      43.684 -21.539 -42.098  0.00  0.00    -0.036 A 
ATOM     14  C   UNL A   1      44.769 -20.956 -42.750  0.00  0.00    -0.060 A 
ATOM     15  C   UNL A   1      45.426 -19.895 -42.152  0.00  0.00    -0.061 A 
ATOM     16  C   UNL A   1      44.996 -19.435 -40.904  0.00  0.00    -0.051 A 
ATOM     17  C   UNL A   1      43.898 -20.026 -40.215  0.00  0.00    +0.023 A 
ATOM     18  C   UNL A   1      40.403 -21.988 -38.752  0.00  0.00    -0.010 C 
ATOM     19  C   UNL A   1      39.529 -21.136 -37.845  0.00  0.00    -0.047 C 
ATOM     20  C   UNL A   1      40.361 -20.667 -36.669  0.00  0.00    -0.049 C 
ATOM     21  C   UNL A   1      41.552 -19.823 -37.127  0.00  0.00    -0.024 C 
ENDBRANCH   6   8
ENDBRANCH   4   6
ENDBRANCH   1   2
BRANCH   1  22
ATOM     22  C   UNL A   1      45.965 -19.222 -34.797  0.00  0.00    -0.029 C 
BRANCH  22  23
ATOM     23  C   UNL A   1      45.357 -18.156 -33.885  0.00  0.00    +0.012 C 
BRANCH  23  26
ATOM     24  C   UNL A   1      43.020 -17.675 -34.486  0.00  0.00    +0.213 C 
ATOM     25  O   UNL A   1      43.333 -16.975 -35.441  0.00  0.00    -0.276 OA
ATOM     26  N   UNL A   1      43.934 -18.372 -33.725  0.00  0.00    -0.315 N 
ATOM     27  H   UNL A   1      43.615 -19.027 -33.063  0.00  0.00    +0.000 HD
BRANCH  24  28
ATOM     28  C   UNL A   1      41.592 -17.794 -34.006  0.00  0.00    +0.028 C 
BRANCH  28  29
ATOM     29  C   UNL A   1      41.561 -18.576 -32.695  0.00  0.00    -0.019 C 
BRANCH  29  32
ATOM     30  C   UNL A   1      40.639 -22.277 -32.732  0.00  0.00    +0.165 A 
ATOM     31  C   UNL A   1      41.390 -21.099 -32.679  0.00  0.00    -0.013 A 
ATOM     32  C   UNL A   1      40.764 -19.851 -32.794  0.00  0.00    -0.040 A 
ATOM     33  C   UNL A   1      39.376 -19.788 -32.989  0.00  0.00    -0.013 A 
ATOM     34  C   UNL A   1      38.603 -20.953 -33.046  0.00  0.00    +0.165 A 
ATOM     35  C   UNL A   1      39.246 -22.199 -32.927  0.00  0.00    +0.204 A 
BRANCH  30  37
ATOM     36  C   UNL A   1      41.582 -23.975 -31.338  0.00  0.00    +0.079 C 
ATOM     37  O   UNL A   1      41.164 -23.541 -32.625  0.00  0.00    -0.491 OA
ENDBRANCH  30  37
BRANCH  34  38
ATOM     38  O   UNL A   1      37.239 -20.960 -33.178  0.00  0.00    -0.491 OA
ATOM     39  C   UNL A   1      36.531 -19.781 -32.820  0.00  0.00    +0.079 C 
ENDBRANCH  34  38
BRANCH  35  40
ATOM     40  O   UNL A   1      38.554 -23.392 -32.905  0.00  0.00    -0.488 OA
ATOM     41  C   UNL A   1      38.356 -23.953 -34.199  0.00  0.00    +0.079 C 
ENDBRANCH  35  40
ENDBRANCH  29  32
ENDBRANCH  28  29
ENDBRANCH  24  28
ENDBRANCH  23  26
ENDBRANCH  22  23
ENDBRANCH   1  22
TORSDOF 12
ENDMDL
MODEL 13
REMARK VINA RESULT:    -7.878     15.815     19.280
REMARK INTER + INTRA:         -14.042
REMARK INTER:                 -11.569
REMARK INTRA:                  -2.474
REMARK UNBOUND:                -0.637
REMARK  Name = cpd95.pdb
REMARK  15 active torsions:
REMARK  status: ('A' for Active; 'I' for Inactive)
REMARK    1  A    between atoms: C_1  and  O_2
REMARK    2  A    between atoms: O_2  and  C_3
REMARK    3  A    between atoms: C_5  and  C_6
REMARK    4  A    between atoms: C_6  and  C_7
REMARK    5  A    between atoms: C_7  and  C_8
REMARK    6  A    between atoms: N_10  and  C_11
REMARK    7  A    between atoms: C_11  and  C_12
REMARK    8  A    between atoms: C_12  and  C_13
REMARK    9  A    between atoms: C_13  and  C_14
REMARK   10  A    between atoms: N_16  and  N_17
REMARK   11  A    between atoms: N_17  and  C_18
REMARK   12  A    between atoms: C_33  and  O_34
REMARK   13  A    between atoms: O_34  and  C_35
REMARK   14  A    between atoms: C_36  and  O_37
REMARK   15  A    between atoms: O_37  and  C_38
REMARK                            x       y       z     vdW  Elec       q    Type
REMARK                         _______ _______ _______ _____ _____    ______ ____
ROOT
ATOM      1  C   UNL A   1      46.739 -18.713 -36.131  0.00  0.00    +0.027 C 
ENDROOT
BRANCH   1   2
ATOM      2  C   UNL A   1      45.848 -18.340 -37.295  0.00  0.00    +0.229 C 
ATOM      3  O   UNL A   1      46.250 -17.699 -38.263  0.00  0.00    -0.274 OA
ATOM      4  N   UNL A   1      44.547 -18.795 -37.173  0.00  0.00    -0.236 N 
ATOM      5  H   UNL A   1      44.263 -19.343 -36.406  0.00  0.00    +0.000 HD
BRANCH   4   6
ATOM      6  N   UNL A   1      43.649 -18.440 -38.193  0.00  0.00    -0.264 N 
ATOM      7  H   UNL A   1      43.425 -17.503 -38.396  0.00  0.00    +0.000 HD
BRANCH   6   8
ATOM      8  C   UNL A   1      43.077 -19.549 -38.921  0.00  0.00    +0.058 A 
ATOM      9  C   UNL A   1      43.476 -19.898 -40.241  0.00  0.00    -0.003 A 
ATOM     10  C   UNL A   1      42.940 -21.071 -40.786  0.00  0.00    +0.047 A 
ATOM     11  N   UNL A   1      42.053 -21.861 -40.142  0.00  0.00    -0.251 NA
ATOM     12  C   UNL A   1      41.706 -21.563 -38.890  0.00  0.00    +0.073 A 
ATOM     13  C   UNL A   1      40.832 -22.439 -38.258  0.00  0.00    -0.036 A 
ATOM     14  C   UNL A   1      40.426 -22.257 -36.938  0.00  0.00    -0.060 A 
ATOM     15  C   UNL A   1      40.907 -21.172 -36.227  0.00  0.00    -0.061 A 
ATOM     16  C   UNL A   1      41.782 -20.275 -36.847  0.00  0.00    -0.051 A 
ATOM     17  C   UNL A   1      42.198 -20.437 -38.200  0.00  0.00    +0.023 A 
ATOM     18  C   UNL A   1      43.312 -21.560 -42.162  0.00  0.00    -0.010 C 
ATOM     19  C   UNL A   1      44.691 -21.086 -42.594  0.00  0.00    -0.047 C 
ATOM     20  C   UNL A   1      44.745 -19.576 -42.475  0.00  0.00    -0.049 C 
ATOM     21  C   UNL A   1      44.502 -19.118 -41.035  0.00  0.00    -0.024 C 
ENDBRANCH   6   8
ENDBRANCH   4   6
ENDBRANCH   1   2
BRANCH   1  22
ATOM     22  C   UNL A   1      45.966 -19.330 -34.973  0.00  0.00    -0.029 C 
BRANCH  22  23
ATOM     23  C   UNL A   1      45.402 -18.289 -34.005  0.00  0.00    +0.012 C 
BRANCH  23  26
ATOM     24  C   UNL A   1      43.043 -17.728 -34.424  0.00  0.00    +0.213 C 
ATOM     25  O   UNL A   1      43.315 -16.937 -35.320  0.00  0.00    -0.276 OA
ATOM     26  N   UNL A   1      43.987 -18.506 -33.788  0.00  0.00    -0.315 N 
ATOM     27  H   UNL A   1      43.694 -19.221 -33.178  0.00  0.00    +0.000 HD
BRANCH  24  28
ATOM     28  C   UNL A   1      41.642 -17.881 -33.879  0.00  0.00    +0.028 C 
BRANCH  28  29
ATOM     29  C   UNL A   1      41.683 -18.716 -32.603  0.00  0.00    -0.019 C 
BRANCH  29  32
ATOM     30  C   UNL A   1      40.634 -22.379 -32.790  0.00  0.00    +0.165 A 
ATOM     31  C   UNL A   1      41.427 -21.228 -32.748  0.00  0.00    -0.013 A 
ATOM     32  C   UNL A   1      40.835 -19.959 -32.691  0.00  0.00    -0.040 A 
ATOM     33  C   UNL A   1      39.436 -19.847 -32.701  0.00  0.00    -0.013 A 
ATOM     34  C   UNL A   1      38.623 -20.984 -32.744  0.00  0.00    +0.165 A 
ATOM     35  C   UNL A   1      39.231 -22.251 -32.798  0.00  0.00    +0.204 A 
BRANCH  30  37
ATOM     36  C   UNL A   1      41.599 -24.235 -31.633  0.00  0.00    +0.079 C 
ATOM     37  O   UNL A   1      41.125 -23.660 -32.842  0.00  0.00    -0.491 OA
ENDBRANCH  30  37
BRANCH  34  38
ATOM     38  O   UNL A   1      37.253 -20.946 -32.700  0.00  0.00    -0.491 OA
ATOM     39  C   UNL A   1      36.592 -19.948 -33.466  0.00  0.00    +0.079 C 
ENDBRANCH  34  38
BRANCH  35  40
ATOM     40  O   UNL A   1      38.506 -23.424 -32.774  0.00  0.00    -0.488 OA
ATOM     41  C   UNL A   1      38.185 -23.915 -34.073  0.00  0.00    +0.079 C 
ENDBRANCH  35  40
ENDBRANCH  29  32
ENDBRANCH  28  29
ENDBRANCH  24  28
ENDBRANCH  23  26
ENDBRANCH  22  23
ENDBRANCH   1  22
TORSDOF 12
ENDMDL
MODEL 14
REMARK VINA RESULT:    -7.783      7.485      9.818
REMARK INTER + INTRA:         -13.879
REMARK INTER:                  -9.922
REMARK INTRA:                  -3.957
REMARK UNBOUND:                -0.637
REMARK  Name = cpd95.pdb
REMARK  15 active torsions:
REMARK  status: ('A' for Active; 'I' for Inactive)
REMARK    1  A    between atoms: C_1  and  O_2
REMARK    2  A    between atoms: O_2  and  C_3
REMARK    3  A    between atoms: C_5  and  C_6
REMARK    4  A    between atoms: C_6  and  C_7
REMARK    5  A    between atoms: C_7  and  C_8
REMARK    6  A    between atoms: N_10  and  C_11
REMARK    7  A    between atoms: C_11  and  C_12
REMARK    8  A    between atoms: C_12  and  C_13
REMARK    9  A    between atoms: C_13  and  C_14
REMARK   10  A    between atoms: N_16  and  N_17
REMARK   11  A    between atoms: N_17  and  C_18
REMARK   12  A    between atoms: C_33  and  O_34
REMARK   13  A    between atoms: O_34  and  C_35
REMARK   14  A    between atoms: C_36  and  O_37
REMARK   15  A    between atoms: O_37  and  C_38
REMARK                            x       y       z     vdW  Elec       q    Type
REMARK                         _______ _______ _______ _____ _____    ______ ____
ROOT
ATOM      1  C   UNL A   1      33.316 -42.388 -25.853  0.00  0.00    +0.027 C 
ENDROOT
BRANCH   1   2
ATOM      2  C   UNL A   1      34.311 -42.620 -26.969  0.00  0.00    +0.229 C 
ATOM      3  O   UNL A   1      34.475 -43.716 -27.498  0.00  0.00    -0.274 OA
ATOM      4  N   UNL A   1      35.009 -41.484 -27.341  0.00  0.00    -0.236 N 
ATOM      5  H   UNL A   1      34.827 -40.610 -26.927  0.00  0.00    +0.000 HD
BRANCH   4   6
ATOM      6  N   UNL A   1      35.988 -41.636 -28.336  0.00  0.00    -0.264 N 
ATOM      7  H   UNL A   1      36.691 -42.324 -28.285  0.00  0.00    +0.000 HD
BRANCH   6   8
ATOM      8  C   UNL A   1      35.890 -40.709 -29.440  0.00  0.00    +0.058 A 
ATOM      9  C   UNL A   1      34.963 -40.869 -30.506  0.00  0.00    -0.003 A 
ATOM     10  C   UNL A   1      34.878 -39.834 -31.446  0.00  0.00    +0.047 A 
ATOM     11  N   UNL A   1      35.644 -38.721 -31.408  0.00  0.00    -0.251 NA
ATOM     12  C   UNL A   1      36.486 -38.546 -30.389  0.00  0.00    +0.073 A 
ATOM     13  C   UNL A   1      37.208 -37.359 -30.373  0.00  0.00    -0.036 A 
ATOM     14  C   UNL A   1      38.090 -37.043 -29.341  0.00  0.00    -0.060 A 
ATOM     15  C   UNL A   1      38.254 -37.933 -28.296  0.00  0.00    -0.061 A 
ATOM     16  C   UNL A   1      37.542 -39.136 -28.298  0.00  0.00    -0.051 A 
ATOM     17  C   UNL A   1      36.645 -39.484 -29.349  0.00  0.00    +0.023 A 
ATOM     18  C   UNL A   1      33.912 -39.875 -32.601  0.00  0.00    -0.010 C 
ATOM     19  C   UNL A   1      32.690 -40.730 -32.305  0.00  0.00    -0.047 C 
ATOM     20  C   UNL A   1      33.153 -42.109 -31.881  0.00  0.00    -0.049 C 
ATOM     21  C   UNL A   1      34.019 -42.046 -30.621  0.00  0.00    -0.024 C 
ENDBRANCH   6   8
ENDBRANCH   4   6
ENDBRANCH   1   2
BRANCH   1  22
ATOM     22  C   UNL A   1      32.365 -41.235 -26.142  0.00  0.00    -0.029 C 
BRANCH  22  23
ATOM     23  C   UNL A   1      32.145 -40.320 -24.936  0.00  0.00    +0.012 C 
BRANCH  23  26
ATOM     24  C   UNL A   1      32.687 -37.944 -25.273  0.00  0.00    +0.213 C 
ATOM     25  O   UNL A   1      31.513 -37.618 -25.399  0.00  0.00    -0.276 OA
ATOM     26  N   UNL A   1      33.089 -39.222 -24.949  0.00  0.00    -0.315 N 
ATOM     27  H   UNL A   1      34.032 -39.392 -24.724  0.00  0.00    +0.000 HD
BRANCH  24  28
ATOM     28  C   UNL A   1      33.824 -36.980 -25.524  0.00  0.00    +0.028 C 
BRANCH  28  29
ATOM     29  C   UNL A   1      34.649 -37.468 -26.712  0.00  0.00    -0.019 C 
BRANCH  29  32
ATOM     30  C   UNL A   1      34.309 -35.186 -29.750  0.00  0.00    +0.165 A 
ATOM     31  C   UNL A   1      34.718 -35.694 -28.514  0.00  0.00    -0.013 A 
ATOM     32  C   UNL A   1      34.181 -36.892 -28.024  0.00  0.00    -0.040 A 
ATOM     33  C   UNL A   1      33.206 -37.569 -28.772  0.00  0.00    -0.013 A 
ATOM     34  C   UNL A   1      32.779 -37.080 -30.011  0.00  0.00    +0.165 A 
ATOM     35  C   UNL A   1      33.330 -35.877 -30.490  0.00  0.00    +0.204 A 
BRANCH  30  37
ATOM     36  C   UNL A   1      34.483 -32.804 -29.651  0.00  0.00    +0.079 C 
ATOM     37  O   UNL A   1      34.783 -34.025 -30.310  0.00  0.00    -0.491 OA
ENDBRANCH  30  37
BRANCH  34  38
ATOM     38  O   UNL A   1      31.873 -37.721 -30.815  0.00  0.00    -0.491 OA
ATOM     39  C   UNL A   1      30.815 -38.432 -30.188  0.00  0.00    +0.079 C 
ENDBRANCH  34  38
BRANCH  35  40
ATOM     40  O   UNL A   1      33.016 -35.360 -31.730  0.00  0.00    -0.488 OA
ATOM     41  C   UNL A   1      33.850 -35.854 -32.774  0.00  0.00    +0.079 C 
ENDBRANCH  35  40
ENDBRANCH  29  32
ENDBRANCH  28  29
ENDBRANCH  24  28
ENDBRANCH  23  26
ENDBRANCH  22  23
ENDBRANCH   1  22
TORSDOF 12
ENDMDL
MODEL 15
REMARK VINA RESULT:    -7.721     17.018     20.116
REMARK INTER + INTRA:         -13.775
REMARK INTER:                 -11.007
REMARK INTRA:                  -2.767
REMARK UNBOUND:                -0.637
REMARK  Name = cpd95.pdb
REMARK  15 active torsions:
REMARK  status: ('A' for Active; 'I' for Inactive)
REMARK    1  A    between atoms: C_1  and  O_2
REMARK    2  A    between atoms: O_2  and  C_3
REMARK    3  A    between atoms: C_5  and  C_6
REMARK    4  A    between atoms: C_6  and  C_7
REMARK    5  A    between atoms: C_7  and  C_8
REMARK    6  A    between atoms: N_10  and  C_11
REMARK    7  A    between atoms: C_11  and  C_12
REMARK    8  A    between atoms: C_12  and  C_13
REMARK    9  A    between atoms: C_13  and  C_14
REMARK   10  A    between atoms: N_16  and  N_17
REMARK   11  A    between atoms: N_17  and  C_18
REMARK   12  A    between atoms: C_33  and  O_34
REMARK   13  A    between atoms: O_34  and  C_35
REMARK   14  A    between atoms: C_36  and  O_37
REMARK   15  A    between atoms: O_37  and  C_38
REMARK                            x       y       z     vdW  Elec       q    Type
REMARK                         _______ _______ _______ _____ _____    ______ ____
ROOT
ATOM      1  C   UNL A   1      45.815 -21.589 -41.850  0.00  0.00    +0.027 C 
ENDROOT
BRANCH   1   2
ATOM      2  C   UNL A   1      46.825 -20.771 -41.076  0.00  0.00    +0.229 C 
ATOM      3  O   UNL A   1      47.848 -20.320 -41.585  0.00  0.00    -0.274 OA
ATOM      4  N   UNL A   1      46.486 -20.572 -39.749  0.00  0.00    -0.236 N 
ATOM      5  H   UNL A   1      45.639 -20.910 -39.378  0.00  0.00    +0.000 HD
BRANCH   4   6
ATOM      6  N   UNL A   1      47.404 -19.866 -38.955  0.00  0.00    -0.264 N 
ATOM      7  H   UNL A   1      48.351 -20.125 -38.887  0.00  0.00    +0.000 HD
BRANCH   6   8
ATOM      8  C   UNL A   1      46.858 -18.732 -38.246  0.00  0.00    +0.058 A 
ATOM      9  C   UNL A   1      46.765 -17.433 -38.816  0.00  0.00    -0.003 A 
ATOM     10  C   UNL A   1      46.097 -16.451 -38.074  0.00  0.00    +0.047 A 
ATOM     11  N   UNL A   1      45.572 -16.665 -36.848  0.00  0.00    -0.251 NA
ATOM     12  C   UNL A   1      45.620 -17.890 -36.324  0.00  0.00    +0.073 A 
ATOM     13  C   UNL A   1      45.017 -18.064 -35.085  0.00  0.00    -0.036 A 
ATOM     14  C   UNL A   1      44.967 -19.305 -34.453  0.00  0.00    -0.060 A 
ATOM     15  C   UNL A   1      45.531 -20.404 -35.076  0.00  0.00    -0.061 A 
ATOM     16  C   UNL A   1      46.149 -20.247 -36.320  0.00  0.00    -0.051 A 
ATOM     17  C   UNL A   1      46.222 -18.985 -36.976  0.00  0.00    +0.023 A 
ATOM     18  C   UNL A   1      45.907 -15.047 -38.587  0.00  0.00    -0.010 C 
ATOM     19  C   UNL A   1      45.904 -14.979 -40.106  0.00  0.00    -0.047 C 
ATOM     20  C   UNL A   1      47.175 -15.624 -40.623  0.00  0.00    -0.049 C 
ATOM     21  C   UNL A   1      47.269 -17.092 -40.202  0.00  0.00    -0.024 C 
ENDBRANCH   6   8
ENDBRANCH   4   6
ENDBRANCH   1   2
BRANCH   1  22
ATOM     22  C   UNL A   1      44.583 -21.937 -41.024  0.00  0.00    -0.029 C 
BRANCH  22  23
ATOM     23  C   UNL A   1      43.333 -21.171 -41.459  0.00  0.00    +0.012 C 
BRANCH  23  26
ATOM     24  C   UNL A   1      42.813 -19.887 -39.425  0.00  0.00    +0.213 C 
ATOM     25  O   UNL A   1      43.715 -19.081 -39.615  0.00  0.00    -0.276 OA
ATOM     26  N   UNL A   1      42.487 -20.885 -40.319  0.00  0.00    -0.315 N 
ATOM     27  H   UNL A   1      41.667 -21.411 -40.180  0.00  0.00    +0.000 HD
BRANCH  24  28
ATOM     28  C   UNL A   1      42.001 -19.905 -38.150  0.00  0.00    +0.028 C 
BRANCH  28  29
ATOM     29  C   UNL A   1      42.347 -21.156 -37.347  0.00  0.00    -0.019 C 
BRANCH  29  32
ATOM     30  C   UNL A   1      40.156 -22.629 -34.594  0.00  0.00    +0.165 A 
ATOM     31  C   UNL A   1      40.886 -22.498 -35.779  0.00  0.00    -0.013 A 
ATOM     32  C   UNL A   1      41.524 -21.291 -36.092  0.00  0.00    -0.040 A 
ATOM     33  C   UNL A   1      41.406 -20.199 -35.218  0.00  0.00    -0.013 A 
ATOM     34  C   UNL A   1      40.681 -20.305 -34.027  0.00  0.00    +0.165 A 
ATOM     35  C   UNL A   1      40.047 -21.525 -33.725  0.00  0.00    +0.204 A 
BRANCH  30  37
ATOM     36  C   UNL A   1      38.297 -24.105 -34.875  0.00  0.00    +0.079 C 
ATOM     37  O   UNL A   1      39.503 -23.771 -34.203  0.00  0.00    -0.491 OA
ENDBRANCH  30  37
BRANCH  34  38
ATOM     38  O   UNL A   1      40.574 -19.296 -33.105  0.00  0.00    -0.491 OA
ATOM     39  C   UNL A   1      41.774 -18.740 -32.587  0.00  0.00    +0.079 C 
ENDBRANCH  34  38
BRANCH  35  40
ATOM     40  O   UNL A   1      39.370 -21.737 -32.543  0.00  0.00    -0.488 OA
ATOM     41  C   UNL A   1      38.042 -21.221 -32.554  0.00  0.00    +0.079 C 
ENDBRANCH  35  40
ENDBRANCH  29  32
ENDBRANCH  28  29
ENDBRANCH  24  28
ENDBRANCH  23  26
ENDBRANCH  22  23
ENDBRANCH   1  22
TORSDOF 12
ENDMDL
MODEL 16
REMARK VINA RESULT:    -7.634     17.882     21.021
REMARK INTER + INTRA:         -13.626
REMARK INTER:                 -12.097
REMARK INTRA:                  -1.529
REMARK UNBOUND:                -0.637
REMARK  Name = cpd95.pdb
REMARK  15 active torsions:
REMARK  status: ('A' for Active; 'I' for Inactive)
REMARK    1  A    between atoms: C_1  and  O_2
REMARK    2  A    between atoms: O_2  and  C_3
REMARK    3  A    between atoms: C_5  and  C_6
REMARK    4  A    between atoms: C_6  and  C_7
REMARK    5  A    between atoms: C_7  and  C_8
REMARK    6  A    between atoms: N_10  and  C_11
REMARK    7  A    between atoms: C_11  and  C_12
REMARK    8  A    between atoms: C_12  and  C_13
REMARK    9  A    between atoms: C_13  and  C_14
REMARK   10  A    between atoms: N_16  and  N_17
REMARK   11  A    between atoms: N_17  and  C_18
REMARK   12  A    between atoms: C_33  and  O_34
REMARK   13  A    between atoms: O_34  and  C_35
REMARK   14  A    between atoms: C_36  and  O_37
REMARK   15  A    between atoms: O_37  and  C_38
REMARK                            x       y       z     vdW  Elec       q    Type
REMARK                         _______ _______ _______ _____ _____    ______ ____
ROOT
ATOM      1  C   UNL A   1      43.022 -17.279 -33.926  0.00  0.00    +0.027 C 
ENDROOT
BRANCH   1   2
ATOM      2  C   UNL A   1      43.113 -18.485 -34.835  0.00  0.00    +0.229 C 
ATOM      3  O   UNL A   1      43.268 -18.392 -36.050  0.00  0.00    -0.274 OA
ATOM      4  N   UNL A   1      43.015 -19.695 -34.172  0.00  0.00    -0.236 N 
ATOM      5  H   UNL A   1      42.933 -19.740 -33.192  0.00  0.00    +0.000 HD
BRANCH   4   6
ATOM      6  N   UNL A   1      43.038 -20.858 -34.960  0.00  0.00    -0.264 N 
ATOM      7  H   UNL A   1      43.871 -21.345 -35.158  0.00  0.00    +0.000 HD
BRANCH   6   8
ATOM      8  C   UNL A   1      41.752 -21.287 -35.459  0.00  0.00    +0.058 A 
ATOM      9  C   UNL A   1      40.588 -21.354 -34.645  0.00  0.00    -0.003 A 
ATOM     10  C   UNL A   1      39.377 -21.660 -35.278  0.00  0.00    +0.047 A 
ATOM     11  N   UNL A   1      39.266 -21.920 -36.599  0.00  0.00    -0.251 NA
ATOM     12  C   UNL A   1      40.345 -21.818 -37.375  0.00  0.00    +0.073 A 
ATOM     13  C   UNL A   1      40.161 -22.044 -38.734  0.00  0.00    -0.036 A 
ATOM     14  C   UNL A   1      41.203 -21.930 -39.651  0.00  0.00    -0.060 A 
ATOM     15  C   UNL A   1      42.463 -21.578 -39.202  0.00  0.00    -0.061 A 
ATOM     16  C   UNL A   1      42.670 -21.353 -37.838  0.00  0.00    -0.051 A 
ATOM     17  C   UNL A   1      41.621 -21.478 -36.882  0.00  0.00    +0.023 A 
ATOM     18  C   UNL A   1      38.073 -21.729 -34.526  0.00  0.00    -0.010 C 
ATOM     19  C   UNL A   1      38.076 -20.861 -33.277  0.00  0.00    -0.047 C 
ATOM     20  C   UNL A   1      39.266 -21.247 -32.421  0.00  0.00    -0.049 C 
ATOM     21  C   UNL A   1      40.585 -21.032 -33.166  0.00  0.00    -0.024 C 
ENDBRANCH   6   8
ENDBRANCH   4   6
ENDBRANCH   1   2
BRANCH   1  22
ATOM     22  C   UNL A   1      44.297 -16.446 -33.924  0.00  0.00    -0.029 C 
BRANCH  22  23
ATOM     23  C   UNL A   1      45.549 -17.265 -33.611  0.00  0.00    +0.012 C 
BRANCH  23  26
ATOM     24  C   UNL A   1      47.247 -18.520 -34.875  0.00  0.00    +0.213 C 
ATOM     25  O   UNL A   1      48.054 -18.501 -33.953  0.00  0.00    -0.276 OA
ATOM     26  N   UNL A   1      45.964 -18.028 -34.770  0.00  0.00    -0.315 N 
ATOM     27  H   UNL A   1      45.318 -18.198 -35.494  0.00  0.00    +0.000 HD
BRANCH  24  28
ATOM     28  C   UNL A   1      47.605 -19.034 -36.251  0.00  0.00    +0.028 C 
BRANCH  28  29
ATOM     29  C   UNL A   1      46.605 -20.110 -36.666  0.00  0.00    -0.019 C 
BRANCH  29  32
ATOM     30  C   UNL A   1      45.889 -19.044 -40.257  0.00  0.00    +0.165 A 
ATOM     31  C   UNL A   1      46.054 -19.000 -38.869  0.00  0.00    -0.013 A 
ATOM     32  C   UNL A   1      46.385 -20.159 -38.155  0.00  0.00    -0.040 A 
ATOM     33  C   UNL A   1      46.527 -21.376 -38.840  0.00  0.00    -0.013 A 
ATOM     34  C   UNL A   1      46.366 -21.445 -40.227  0.00  0.00    +0.165 A 
ATOM     35  C   UNL A   1      46.036 -20.272 -40.931  0.00  0.00    +0.204 A 
BRANCH  30  37
ATOM     36  C   UNL A   1      44.376 -17.254 -40.731  0.00  0.00    +0.079 C 
ATOM     37  O   UNL A   1      45.569 -17.961 -41.038  0.00  0.00    -0.491 OA
ENDBRANCH  30  37
BRANCH  34  38
ATOM     38  O   UNL A   1      46.546 -22.588 -40.961  0.00  0.00    -0.491 OA
ATOM     39  C   UNL A   1      47.841 -23.172 -40.976  0.00  0.00    +0.079 C 
ENDBRANCH  34  38
BRANCH  35  40
ATOM     40  O   UNL A   1      45.925 -20.237 -42.305  0.00  0.00    -0.488 OA
ATOM     41  C   UNL A   1      44.613 -20.533 -42.773  0.00  0.00    +0.079 C 
ENDBRANCH  35  40
ENDBRANCH  29  32
ENDBRANCH  28  29
ENDBRANCH  24  28
ENDBRANCH  23  26
ENDBRANCH  22  23
ENDBRANCH   1  22
TORSDOF 12
ENDMDL
MODEL 17
REMARK VINA RESULT:    -7.629     16.961     21.147
REMARK INTER + INTRA:         -13.617
REMARK INTER:                 -10.678
REMARK INTRA:                  -2.940
REMARK UNBOUND:                -0.637
REMARK  Name = cpd95.pdb
REMARK  15 active torsions:
REMARK  status: ('A' for Active; 'I' for Inactive)
REMARK    1  A    between atoms: C_1  and  O_2
REMARK    2  A    between atoms: O_2  and  C_3
REMARK    3  A    between atoms: C_5  and  C_6
REMARK    4  A    between atoms: C_6  and  C_7
REMARK    5  A    between atoms: C_7  and  C_8
REMARK    6  A    between atoms: N_10  and  C_11
REMARK    7  A    between atoms: C_11  and  C_12
REMARK    8  A    between atoms: C_12  and  C_13
REMARK    9  A    between atoms: C_13  and  C_14
REMARK   10  A    between atoms: N_16  and  N_17
REMARK   11  A    between atoms: N_17  and  C_18
REMARK   12  A    between atoms: C_33  and  O_34
REMARK   13  A    between atoms: O_34  and  C_35
REMARK   14  A    between atoms: C_36  and  O_37
REMARK   15  A    between atoms: O_37  and  C_38
REMARK                            x       y       z     vdW  Elec       q    Type
REMARK                         _______ _______ _______ _____ _____    ______ ____
ROOT
ATOM      1  C   UNL A   1      43.150 -15.957 -34.377  0.00  0.00    +0.027 C 
ENDROOT
BRANCH   1   2
ATOM      2  C   UNL A   1      41.843 -16.605 -34.775  0.00  0.00    +0.229 C 
ATOM      3  O   UNL A   1      40.748 -16.144 -34.460  0.00  0.00    -0.274 OA
ATOM      4  N   UNL A   1      41.994 -17.755 -35.530  0.00  0.00    -0.236 N 
ATOM      5  H   UNL A   1      42.883 -18.078 -35.802  0.00  0.00    +0.000 HD
BRANCH   4   6
ATOM      6  N   UNL A   1      40.822 -18.440 -35.890  0.00  0.00    -0.264 N 
ATOM      7  H   UNL A   1      39.968 -17.978 -36.047  0.00  0.00    +0.000 HD
BRANCH   6   8
ATOM      8  C   UNL A   1      40.962 -19.873 -36.011  0.00  0.00    +0.058 A 
ATOM      9  C   UNL A   1      40.522 -20.782 -35.010  0.00  0.00    -0.003 A 
ATOM     10  C   UNL A   1      40.596 -22.149 -35.306  0.00  0.00    +0.047 A 
ATOM     11  N   UNL A   1      41.085 -22.641 -36.465  0.00  0.00    -0.251 NA
ATOM     12  C   UNL A   1      41.460 -21.794 -37.424  0.00  0.00    +0.073 A 
ATOM     13  C   UNL A   1      41.904 -22.355 -38.615  0.00  0.00    -0.036 A 
ATOM     14  C   UNL A   1      42.287 -21.575 -39.704  0.00  0.00    -0.060 A 
ATOM     15  C   UNL A   1      42.222 -20.197 -39.604  0.00  0.00    -0.061 A 
ATOM     16  C   UNL A   1      41.785 -19.613 -38.412  0.00  0.00    -0.051 A 
ATOM     17  C   UNL A   1      41.402 -20.393 -37.282  0.00  0.00    +0.023 A 
ATOM     18  C   UNL A   1      40.131 -23.206 -34.338  0.00  0.00    -0.010 C 
ATOM     19  C   UNL A   1      39.058 -22.693 -33.390  0.00  0.00    -0.047 C 
ATOM     20  C   UNL A   1      39.577 -21.452 -32.694  0.00  0.00    -0.049 C 
ATOM     21  C   UNL A   1      39.909 -20.345 -33.698  0.00  0.00    -0.024 C 
ENDBRANCH   6   8
ENDBRANCH   4   6
ENDBRANCH   1   2
BRANCH   1  22
ATOM     22  C   UNL A   1      43.619 -16.379 -32.991  0.00  0.00    -0.029 C 
BRANCH  22  23
ATOM     23  C   UNL A   1      44.853 -17.280 -33.023  0.00  0.00    +0.012 C 
BRANCH  23  26
ATOM     24  C   UNL A   1      45.145 -18.601 -35.078  0.00  0.00    +0.213 C 
ATOM     25  O   UNL A   1      44.417 -19.506 -34.687  0.00  0.00    -0.276 OA
ATOM     26  N   UNL A   1      45.341 -17.430 -34.377  0.00  0.00    -0.315 N 
ATOM     27  H   UNL A   1      45.822 -16.685 -34.804  0.00  0.00    +0.000 HD
BRANCH  24  28
ATOM     28  C   UNL A   1      45.955 -18.708 -36.350  0.00  0.00    +0.028 C 
BRANCH  28  29
ATOM     29  C   UNL A   1      45.799 -20.110 -36.933  0.00  0.00    -0.019 C 
BRANCH  29  32
ATOM     30  C   UNL A   1      45.909 -21.330 -40.545  0.00  0.00    +0.165 A 
ATOM     31  C   UNL A   1      45.937 -21.323 -39.147  0.00  0.00    -0.013 A 
ATOM     32  C   UNL A   1      45.812 -20.120 -38.440  0.00  0.00    -0.040 A 
ATOM     33  C   UNL A   1      45.683 -18.913 -39.144  0.00  0.00    -0.013 A 
ATOM     34  C   UNL A   1      45.654 -18.895 -40.542  0.00  0.00    +0.165 A 
ATOM     35  C   UNL A   1      45.778 -20.111 -41.239  0.00  0.00    +0.204 A 
BRANCH  30  37
ATOM     36  C   UNL A   1      47.258 -23.150 -41.306  0.00  0.00    +0.079 C 
ATOM     37  O   UNL A   1      46.019 -22.458 -41.321  0.00  0.00    -0.491 OA
ENDBRANCH  30  37
BRANCH  34  38
ATOM     38  O   UNL A   1      45.474 -17.759 -41.288  0.00  0.00    -0.491 OA
ATOM     39  C   UNL A   1      44.250 -17.053 -41.140  0.00  0.00    +0.079 C 
ENDBRANCH  34  38
BRANCH  35  40
ATOM     40  O   UNL A   1      45.691 -20.191 -42.613  0.00  0.00    -0.488 OA
ATOM     41  C   UNL A   1      44.351 -20.291 -43.088  0.00  0.00    +0.079 C 
ENDBRANCH  35  40
ENDBRANCH  29  32
ENDBRANCH  28  29
ENDBRANCH  24  28
ENDBRANCH  23  26
ENDBRANCH  22  23
ENDBRANCH   1  22
TORSDOF 12
ENDMDL
MODEL 18
REMARK VINA RESULT:    -7.557     17.342     21.285
REMARK INTER + INTRA:         -13.496
REMARK INTER:                 -10.166
REMARK INTRA:                  -3.329
REMARK UNBOUND:                -0.637
REMARK  Name = cpd95.pdb
REMARK  15 active torsions:
REMARK  status: ('A' for Active; 'I' for Inactive)
REMARK    1  A    between atoms: C_1  and  O_2
REMARK    2  A    between atoms: O_2  and  C_3
REMARK    3  A    between atoms: C_5  and  C_6
REMARK    4  A    between atoms: C_6  and  C_7
REMARK    5  A    between atoms: C_7  and  C_8
REMARK    6  A    between atoms: N_10  and  C_11
REMARK    7  A    between atoms: C_11  and  C_12
REMARK    8  A    between atoms: C_12  and  C_13
REMARK    9  A    between atoms: C_13  and  C_14
REMARK   10  A    between atoms: N_16  and  N_17
REMARK   11  A    between atoms: N_17  and  C_18
REMARK   12  A    between atoms: C_33  and  O_34
REMARK   13  A    between atoms: O_34  and  C_35
REMARK   14  A    between atoms: C_36  and  O_37
REMARK   15  A    between atoms: O_37  and  C_38
REMARK                            x       y       z     vdW  Elec       q    Type
REMARK                         _______ _______ _______ _____ _____    ______ ____
ROOT
ATOM      1  C   UNL A   1      39.924 -20.123 -33.343  0.00  0.00    +0.027 C 
ENDROOT
BRANCH   1   2
ATOM      2  C   UNL A   1      41.162 -19.442 -32.803  0.00  0.00    +0.229 C 
ATOM      3  O   UNL A   1      41.137 -18.686 -31.835  0.00  0.00    -0.274 OA
ATOM      4  N   UNL A   1      42.320 -19.755 -33.493  0.00  0.00    -0.236 N 
ATOM      5  H   UNL A   1      42.316 -20.397 -34.240  0.00  0.00    +0.000 HD
BRANCH   4   6
ATOM      6  N   UNL A   1      43.501 -19.117 -33.080  0.00  0.00    -0.264 N 
ATOM      7  H   UNL A   1      43.919 -19.295 -32.207  0.00  0.00    +0.000 HD
BRANCH   6   8
ATOM      8  C   UNL A   1      44.056 -18.180 -34.029  0.00  0.00    +0.058 A 
ATOM      9  C   UNL A   1      43.816 -16.780 -33.968  0.00  0.00    -0.003 A 
ATOM     10  C   UNL A   1      44.517 -15.967 -34.868  0.00  0.00    +0.047 A 
ATOM     11  N   UNL A   1      45.375 -16.442 -35.797  0.00  0.00    -0.251 NA
ATOM     12  C   UNL A   1      45.636 -17.749 -35.833  0.00  0.00    +0.073 A 
ATOM     13  C   UNL A   1      46.567 -18.175 -36.773  0.00  0.00    -0.036 A 
ATOM     14  C   UNL A   1      46.952 -19.509 -36.882  0.00  0.00    -0.060 A 
ATOM     15  C   UNL A   1      46.397 -20.445 -36.028  0.00  0.00    -0.061 A 
ATOM     16  C   UNL A   1      45.454 -20.037 -35.080  0.00  0.00    -0.051 A 
ATOM     17  C   UNL A   1      45.037 -18.680 -34.961  0.00  0.00    +0.023 A 
ATOM     18  C   UNL A   1      44.370 -14.467 -34.878  0.00  0.00    -0.010 C 
ATOM     19  C   UNL A   1      43.957 -13.916 -33.522  0.00  0.00    -0.047 C 
ATOM     20  C   UNL A   1      42.695 -14.625 -33.072  0.00  0.00    -0.049 C 
ATOM     21  C   UNL A   1      42.918 -16.133 -32.936  0.00  0.00    -0.024 C 
ENDBRANCH   6   8
ENDBRANCH   4   6
ENDBRANCH   1   2
BRANCH   1  22
ATOM     22  C   UNL A   1      39.880 -21.610 -33.014  0.00  0.00    -0.029 C 
BRANCH  22  23
ATOM     23  C   UNL A   1      39.613 -22.488 -34.236  0.00  0.00    +0.012 C 
BRANCH  23  26
ATOM     24  C   UNL A   1      40.784 -22.144 -36.373  0.00  0.00    +0.213 C 
ATOM     25  O   UNL A   1      41.371 -23.217 -36.308  0.00  0.00    -0.276 OA
ATOM     26  N   UNL A   1      39.833 -21.744 -35.458  0.00  0.00    -0.315 N 
ATOM     27  H   UNL A   1      39.296 -20.938 -35.638  0.00  0.00    +0.000 HD
BRANCH  24  28
ATOM     28  C   UNL A   1      41.093 -21.117 -37.438  0.00  0.00    +0.028 C 
BRANCH  28  29
ATOM     29  C   UNL A   1      42.293 -20.281 -37.003  0.00  0.00    -0.019 C 
BRANCH  29  32
ATOM     30  C   UNL A   1      44.087 -18.207 -39.654  0.00  0.00    +0.165 A 
ATOM     31  C   UNL A   1      43.230 -18.569 -38.611  0.00  0.00    -0.013 A 
ATOM     32  C   UNL A   1      43.183 -19.893 -38.155  0.00  0.00    -0.040 A 
ATOM     33  C   UNL A   1      43.987 -20.865 -38.769  0.00  0.00    -0.013 A 
ATOM     34  C   UNL A   1      44.852 -20.527 -39.816  0.00  0.00    +0.165 A 
ATOM     35  C   UNL A   1      44.889 -19.193 -40.262  0.00  0.00    +0.204 A 
BRANCH  30  37
ATOM     36  C   UNL A   1      43.014 -16.283 -40.582  0.00  0.00    +0.079 C 
ATOM     37  O   UNL A   1      44.203 -16.937 -40.162  0.00  0.00    -0.491 OA
ENDBRANCH  30  37
BRANCH  34  38
ATOM     38  O   UNL A   1      45.703 -21.416 -40.421  0.00  0.00    -0.491 OA
ATOM     39  C   UNL A   1      45.316 -21.954 -41.678  0.00  0.00    +0.079 C 
ENDBRANCH  34  38
BRANCH  35  40
ATOM     40  O   UNL A   1      45.760 -18.761 -41.240  0.00  0.00    -0.488 OA
ATOM     41  C   UNL A   1      47.041 -18.397 -40.733  0.00  0.00    +0.079 C 
ENDBRANCH  35  40
ENDBRANCH  29  32
ENDBRANCH  28  29
ENDBRANCH  24  28
ENDBRANCH  23  26
ENDBRANCH  22  23
ENDBRANCH   1  22
TORSDOF 12
ENDMDL
MODEL 19
REMARK VINA RESULT:    -7.506     18.780     21.199
REMARK INTER + INTRA:         -13.409
REMARK INTER:                  -9.455
REMARK INTRA:                  -3.954
REMARK UNBOUND:                -0.637
REMARK  Name = cpd95.pdb
REMARK  15 active torsions:
REMARK  status: ('A' for Active; 'I' for Inactive)
REMARK    1  A    between atoms: C_1  and  O_2
REMARK    2  A    between atoms: O_2  and  C_3
REMARK    3  A    between atoms: C_5  and  C_6
REMARK    4  A    between atoms: C_6  and  C_7
REMARK    5  A    between atoms: C_7  and  C_8
REMARK    6  A    between atoms: N_10  and  C_11
REMARK    7  A    between atoms: C_11  and  C_12
REMARK    8  A    between atoms: C_12  and  C_13
REMARK    9  A    between atoms: C_13  and  C_14
REMARK   10  A    between atoms: N_16  and  N_17
REMARK   11  A    between atoms: N_17  and  C_18
REMARK   12  A    between atoms: C_33  and  O_34
REMARK   13  A    between atoms: O_34  and  C_35
REMARK   14  A    between atoms: C_36  and  O_37
REMARK   15  A    between atoms: O_37  and  C_38
REMARK                            x       y       z     vdW  Elec       q    Type
REMARK                         _______ _______ _______ _____ _____    ______ ____
ROOT
ATOM      1  C   UNL A   1      45.589 -22.039 -41.359  0.00  0.00    +0.027 C 
ENDROOT
BRANCH   1   2
ATOM      2  C   UNL A   1      46.703 -21.254 -40.701  0.00  0.00    +0.229 C 
ATOM      3  O   UNL A   1      47.763 -21.001 -41.267  0.00  0.00    -0.274 OA
ATOM      4  N   UNL A   1      46.412 -20.842 -39.412  0.00  0.00    -0.236 N 
ATOM      5  H   UNL A   1      45.537 -21.024 -38.999  0.00  0.00    +0.000 HD
BRANCH   4   6
ATOM      6  N   UNL A   1      47.422 -20.154 -38.720  0.00  0.00    -0.264 N 
ATOM      7  H   UNL A   1      48.354 -20.470 -38.694  0.00  0.00    +0.000 HD
BRANCH   6   8
ATOM      8  C   UNL A   1      46.993 -18.948 -38.049  0.00  0.00    +0.058 A 
ATOM      9  C   UNL A   1      46.930 -17.683 -38.695  0.00  0.00    -0.003 A 
ATOM     10  C   UNL A   1      46.375 -16.619 -37.973  0.00  0.00    +0.047 A 
ATOM     11  N   UNL A   1      45.931 -16.726 -36.701  0.00  0.00    -0.251 NA
ATOM     12  C   UNL A   1      45.949 -17.918 -36.104  0.00  0.00    +0.073 A 
ATOM     13  C   UNL A   1      45.430 -17.980 -34.817  0.00  0.00    -0.036 A 
ATOM     14  C   UNL A   1      45.358 -19.175 -34.104  0.00  0.00    -0.060 A 
ATOM     15  C   UNL A   1      45.813 -20.341 -34.692  0.00  0.00    -0.061 A 
ATOM     16  C   UNL A   1      46.345 -20.298 -35.985  0.00  0.00    -0.051 A 
ATOM     17  C   UNL A   1      46.440 -19.084 -36.725  0.00  0.00    +0.023 A 
ATOM     18  C   UNL A   1      46.226 -15.239 -38.561  0.00  0.00    -0.010 C 
ATOM     19  C   UNL A   1      46.115 -15.265 -40.078  0.00  0.00    -0.047 C 
ATOM     20  C   UNL A   1      47.306 -16.014 -40.640  0.00  0.00    -0.049 C 
ATOM     21  C   UNL A   1      47.349 -17.457 -40.132  0.00  0.00    -0.024 C 
ENDBRANCH   6   8
ENDBRANCH   4   6
ENDBRANCH   1   2
BRANCH   1  22
ATOM     22  C   UNL A   1      44.750 -21.189 -42.305  0.00  0.00    -0.029 C 
BRANCH  22  23
ATOM     23  C   UNL A   1      43.280 -21.107 -41.894  0.00  0.00    +0.012 C 
BRANCH  23  26
ATOM     24  C   UNL A   1      42.037 -21.863 -39.909  0.00  0.00    +0.213 C 
ATOM     25  O   UNL A   1      41.205 -22.471 -40.571  0.00  0.00    -0.276 OA
ATOM     26  N   UNL A   1      43.141 -21.247 -40.460  0.00  0.00    -0.315 N 
ATOM     27  H   UNL A   1      43.846 -20.897 -39.869  0.00  0.00    +0.000 HD
BRANCH  24  28
ATOM     28  C   UNL A   1      41.900 -21.673 -38.416  0.00  0.00    +0.028 C 
BRANCH  28  29
ATOM     29  C   UNL A   1      43.100 -20.888 -37.892  0.00  0.00    -0.019 C 
BRANCH  29  32
ATOM     30  C   UNL A   1      41.883 -18.223 -35.450  0.00  0.00    +0.165 A 
ATOM     31  C   UNL A   1      42.202 -19.466 -36.003  0.00  0.00    -0.013 A 
ATOM     32  C   UNL A   1      42.714 -19.555 -37.305  0.00  0.00    -0.040 A 
ATOM     33  C   UNL A   1      42.882 -18.386 -38.063  0.00  0.00    -0.013 A 
ATOM     34  C   UNL A   1      42.569 -17.131 -37.531  0.00  0.00    +0.165 A 
ATOM     35  C   UNL A   1      42.058 -17.058 -36.222  0.00  0.00    +0.204 A 
BRANCH  30  37
ATOM     36  C   UNL A   1      41.069 -19.197 -33.424  0.00  0.00    +0.079 C 
ATOM     37  O   UNL A   1      41.382 -18.039 -34.185  0.00  0.00    -0.491 OA
ENDBRANCH  30  37
BRANCH  34  38
ATOM     38  O   UNL A   1      42.762 -15.949 -38.198  0.00  0.00    -0.491 OA
ATOM     39  C   UNL A   1      42.281 -15.852 -39.531  0.00  0.00    +0.079 C 
ENDBRANCH  34  38
BRANCH  35  40
ATOM     40  O   UNL A   1      41.787 -15.859 -35.597  0.00  0.00    -0.488 OA
ATOM     41  C   UNL A   1      40.488 -15.352 -35.889  0.00  0.00    +0.079 C 
ENDBRANCH  35  40
ENDBRANCH  29  32
ENDBRANCH  28  29
ENDBRANCH  24  28
ENDBRANCH  23  26
ENDBRANCH  22  23
ENDBRANCH   1  22
TORSDOF 12
ENDMDL
MODEL 20
REMARK VINA RESULT:    -7.185     17.211     20.315
REMARK INTER + INTRA:         -12.862
REMARK INTER:                 -10.146
REMARK INTRA:                  -2.717
REMARK UNBOUND:                -0.637
REMARK  Name = cpd95.pdb
REMARK  15 active torsions:
REMARK  status: ('A' for Active; 'I' for Inactive)
REMARK    1  A    between atoms: C_1  and  O_2
REMARK    2  A    between atoms: O_2  and  C_3
REMARK    3  A    between atoms: C_5  and  C_6
REMARK    4  A    between atoms: C_6  and  C_7
REMARK    5  A    between atoms: C_7  and  C_8
REMARK    6  A    between atoms: N_10  and  C_11
REMARK    7  A    between atoms: C_11  and  C_12
REMARK    8  A    between atoms: C_12  and  C_13
REMARK    9  A    between atoms: C_13  and  C_14
REMARK   10  A    between atoms: N_16  and  N_17
REMARK   11  A    between atoms: N_17  and  C_18
REMARK   12  A    between atoms: C_33  and  O_34
REMARK   13  A    between atoms: O_34  and  C_35
REMARK   14  A    between atoms: C_36  and  O_37
REMARK   15  A    between atoms: O_37  and  C_38
REMARK                            x       y       z     vdW  Elec       q    Type
REMARK                         _______ _______ _______ _____ _____    ______ ____
ROOT
ATOM      1  C   UNL A   1      45.582 -15.741 -37.195  0.00  0.00    +0.027 C 
ENDROOT
BRANCH   1   2
ATOM      2  C   UNL A   1      45.232 -16.398 -38.512  0.00  0.00    +0.229 C 
ATOM      3  O   UNL A   1      45.992 -16.401 -39.477  0.00  0.00    -0.274 OA
ATOM      4  N   UNL A   1      43.986 -17.000 -38.524  0.00  0.00    -0.236 N 
ATOM      5  H   UNL A   1      43.415 -17.017 -37.722  0.00  0.00    +0.000 HD
BRANCH   4   6
ATOM      6  N   UNL A   1      43.572 -17.584 -39.732  0.00  0.00    -0.264 N 
ATOM      7  H   UNL A   1      43.351 -17.050 -40.528  0.00  0.00    +0.000 HD
BRANCH   6   8
ATOM      8  C   UNL A   1      43.493 -19.027 -39.720  0.00  0.00    +0.058 A 
ATOM      9  C   UNL A   1      42.383 -19.738 -39.187  0.00  0.00    -0.003 A 
ATOM     10  C   UNL A   1      42.370 -21.128 -39.354  0.00  0.00    +0.047 A 
ATOM     11  N   UNL A   1      43.358 -21.821 -39.961  0.00  0.00    -0.251 NA
ATOM     12  C   UNL A   1      44.381 -21.157 -40.500  0.00  0.00    +0.073 A 
ATOM     13  C   UNL A   1      45.340 -21.916 -41.159  0.00  0.00    -0.036 A 
ATOM     14  C   UNL A   1      46.435 -21.335 -41.796  0.00  0.00    -0.060 A 
ATOM     15  C   UNL A   1      46.576 -19.959 -41.777  0.00  0.00    -0.061 A 
ATOM     16  C   UNL A   1      45.624 -19.179 -41.114  0.00  0.00    -0.051 A 
ATOM     17  C   UNL A   1      44.505 -19.754 -40.445  0.00  0.00    +0.023 A 
ATOM     18  C   UNL A   1      41.233 -21.986 -38.859  0.00  0.00    -0.010 C 
ATOM     19  C   UNL A   1      39.922 -21.220 -38.777  0.00  0.00    -0.047 C 
ATOM     20  C   UNL A   1      40.134 -19.983 -37.928  0.00  0.00    -0.049 C 
ATOM     21  C   UNL A   1      41.196 -19.063 -38.534  0.00  0.00    -0.024 C 
ENDBRANCH   6   8
ENDBRANCH   4   6
ENDBRANCH   1   2
BRANCH   1  22
ATOM     22  C   UNL A   1      47.012 -16.027 -36.756  0.00  0.00    -0.029 C 
BRANCH  22  23
ATOM     23  C   UNL A   1      47.293 -17.517 -36.560  0.00  0.00    +0.012 C 
BRANCH  23  26
ATOM     24  C   UNL A   1      45.716 -19.406 -36.585  0.00  0.00    +0.213 C 
ATOM     25  O   UNL A   1      46.396 -20.058 -37.369  0.00  0.00    -0.276 OA
ATOM     26  N   UNL A   1      46.118 -18.197 -36.058  0.00  0.00    -0.315 N 
ATOM     27  H   UNL A   1      45.596 -17.789 -35.329  0.00  0.00    +0.000 HD
BRANCH  24  28
ATOM     28  C   UNL A   1      44.330 -19.839 -36.165  0.00  0.00    +0.028 C 
BRANCH  28  29
ATOM     29  C   UNL A   1      43.723 -18.776 -35.254  0.00  0.00    -0.019 C 
BRANCH  29  32
ATOM     30  C   UNL A   1      41.019 -21.082 -33.867  0.00  0.00    +0.165 A 
ATOM     31  C   UNL A   1      42.072 -20.593 -34.646  0.00  0.00    -0.013 A 
ATOM     32  C   UNL A   1      42.560 -19.295 -34.447  0.00  0.00    -0.040 A 
ATOM     33  C   UNL A   1      41.969 -18.474 -33.474  0.00  0.00    -0.013 A 
ATOM     34  C   UNL A   1      40.914 -18.941 -32.683  0.00  0.00    +0.165 A 
ATOM     35  C   UNL A   1      40.435 -20.247 -32.893  0.00  0.00    +0.204 A 
BRANCH  30  37
ATOM     36  C   UNL A   1      39.939 -22.707 -35.248  0.00  0.00    +0.079 C 
ATOM     37  O   UNL A   1      40.479 -22.338 -33.987  0.00  0.00    -0.491 OA
ENDBRANCH  30  37
BRANCH  34  38
ATOM     38  O   UNL A   1      40.330 -18.211 -31.680  0.00  0.00    -0.491 OA
ATOM     39  C   UNL A   1      39.389 -17.212 -32.047  0.00  0.00    +0.079 C 
ENDBRANCH  34  38
BRANCH  35  40
ATOM     40  O   UNL A   1      39.446 -20.810 -32.114  0.00  0.00    -0.488 OA
ATOM     41  C   UNL A   1      38.137 -20.628 -32.647  0.00  0.00    +0.079 C 
ENDBRANCH  35  40
ENDBRANCH  29  32
ENDBRANCH  28  29
ENDBRANCH  24  28
ENDBRANCH  23  26
ENDBRANCH  22  23
ENDBRANCH   1  22
TORSDOF 12
ENDMDL
