REMARK  Name = cpd95.pdb
REMARK  15 active torsions:
REMARK  status: ('A' for Active; 'I' for Inactive)
REMARK    1  A    between atoms: C_1  and  O_2
REMARK    2  A    between atoms: O_2  and  C_3
REMARK    3  A    between atoms: C_5  and  C_6
REMARK    4  A    between atoms: C_6  and  C_7
REMARK    5  A    between atoms: C_7  and  C_8
REMARK    6  A    between atoms: N_10  and  C_11
REMARK    7  A    between atoms: C_11  and  C_12
REMARK    8  A    between atoms: C_12  and  C_13
REMARK    9  A    between atoms: C_13  and  C_14
REMARK   10  A    between atoms: N_16  and  N_17
REMARK   11  A    between atoms: N_17  and  C_18
REMARK   12  A    between atoms: C_33  and  O_34
REMARK   13  A    between atoms: O_34  and  C_35
REMARK   14  A    between atoms: C_36  and  O_37
REMARK   15  A    between atoms: O_37  and  C_38
REMARK                            x       y       z     vdW  Elec       q    Type
REMARK                         _______ _______ _______ _____ _____    ______ ____
ROOT
ATOM      1  C   UNL A   1      -7.193  -3.490  -1.939  0.00  0.00    +0.027 C 
ENDROOT
BRANCH   1   2
ATOM      2  C   UNL A   1      -8.381  -2.724  -1.400  0.00  0.00    +0.229 C 
ATOM      3  O   UNL A   1      -8.798  -1.691  -1.918  0.00  0.00    -0.274 OA
ATOM      4  N   UNL A   1      -8.956  -3.298  -0.280  0.00  0.00    -0.236 N 
ATOM      5  H   UNL A   1      -8.626  -4.149   0.089  0.00  0.00    +0.000 HD
BRANCH   4   6
ATOM      6  N   UNL A   1     -10.032  -2.612   0.307  0.00  0.00    -0.264 N 
ATOM      7  H   UNL A   1      -9.916  -1.761   0.788  0.00  0.00    +0.000 HD
BRANCH   6   8
ATOM      8  C   UNL A   1     -11.321  -3.246   0.154  0.00  0.00    +0.058 A 
ATOM      9  C   UNL A   1     -11.513  -4.650   0.272  0.00  0.00    -0.003 A 
ATOM     10  C   UNL A   1     -12.830  -5.125   0.232  0.00  0.00    +0.047 A 
ATOM     11  N   UNL A   1     -13.909  -4.331   0.059  0.00  0.00    -0.251 NA
ATOM     12  C   UNL A   1     -13.740  -3.010  -0.011  0.00  0.00    +0.073 A 
ATOM     13  C   UNL A   1     -14.889  -2.239  -0.135  0.00  0.00    -0.036 A 
ATOM     14  C   UNL A   1     -14.846  -0.847  -0.179  0.00  0.00    -0.060 A 
ATOM     15  C   UNL A   1     -13.623  -0.206  -0.094  0.00  0.00    -0.061 A 
ATOM     16  C   UNL A   1     -12.455  -0.965   0.024  0.00  0.00    -0.051 A 
ATOM     17  C   UNL A   1     -12.477  -2.389   0.057  0.00  0.00    +0.023 A 
ATOM     18  C   UNL A   1     -13.161  -6.588   0.378  0.00  0.00    -0.010 C 
ATOM     19  C   UNL A   1     -12.107  -7.345   1.171  0.00  0.00    -0.047 C 
ATOM     20  C   UNL A   1     -10.755  -7.113   0.527  0.00  0.00    -0.049 C 
ATOM     21  C   UNL A   1     -10.385  -5.628   0.521  0.00  0.00    -0.024 C 
ENDBRANCH   6   8
ENDBRANCH   4   6
ENDBRANCH   1   2
BRANCH   1  22
ATOM     22  C   UNL A   1      -5.868  -2.992  -1.377  0.00  0.00    -0.029 C 
BRANCH  22  23
ATOM     23  C   UNL A   1      -5.508  -3.628  -0.034  0.00  0.00    +0.012 C 
BRANCH  23  26
ATOM     24  C   UNL A   1      -4.000  -1.999   1.028  0.00  0.00    +0.213 C 
ATOM     25  O   UNL A   1      -4.921  -1.293   1.421  0.00  0.00    -0.276 OA
ATOM     26  N   UNL A   1      -4.190  -3.208   0.393  0.00  0.00    -0.315 N 
ATOM     27  H   UNL A   1      -3.417  -3.795   0.227  0.00  0.00    +0.000 HD
BRANCH  24  28
ATOM     28  C   UNL A   1      -2.553  -1.579   1.146  0.00  0.00    +0.028 C 
BRANCH  28  29
ATOM     29  C   UNL A   1      -2.012  -1.231  -0.238  0.00  0.00    -0.019 C 
BRANCH  29  32
ATOM     30  C   UNL A   1       1.699  -0.367  -0.064  0.00  0.00    +0.165 A 
ATOM     31  C   UNL A   1       0.508  -1.099  -0.076  0.00  0.00    -0.013 A 
ATOM     32  C   UNL A   1      -0.727  -0.446  -0.182  0.00  0.00    -0.040 A 
ATOM     33  C   UNL A   1      -0.765   0.955  -0.252  0.00  0.00    -0.013 A 
ATOM     34  C   UNL A   1       0.413   1.709  -0.241  0.00  0.00    +0.165 A 
ATOM     35  C   UNL A   1       1.646   1.039  -0.136  0.00  0.00    +0.204 A 
BRANCH  30  37
ATOM     36  C   UNL A   1       3.053  -2.336  -0.003  0.00  0.00    +0.079 C 
ATOM     37  O   UNL A   1       2.952  -0.920   0.032  0.00  0.00    -0.491 OA
ENDBRANCH  30  37
BRANCH  34  38
ATOM     38  O   UNL A   1       0.448   3.074  -0.362  0.00  0.00    -0.491 OA
ATOM     39  C   UNL A   1      -0.790   3.771  -0.382  0.00  0.00    +0.079 C 
ENDBRANCH  34  38
BRANCH  35  40
ATOM     40  O   UNL A   1       2.856   1.699  -0.186  0.00  0.00    -0.488 OA
ATOM     41  C   UNL A   1       2.995   2.698   0.820  0.00  0.00    +0.079 C 
ENDBRANCH  35  40
ENDBRANCH  29  32
ENDBRANCH  28  29
ENDBRANCH  24  28
ENDBRANCH  23  26
ENDBRANCH  22  23
ENDBRANCH   1  22
TORSDOF 12
