@<TRIPOS>MOLECULE
*****
 38 41 0 0 0
SMALL
GASTEIGER

@<TRIPOS>ATOM
      1 C           0.8660   -2.5000    0.0000 C.3     1  UNL1        0.2526
      2 O           0.8660   -1.5000    0.0000 O.3     1  UNL1       -0.4683
      3 C          -0.0000   -1.0000    0.0000 C.ar    1  UNL1        0.1751
      4 C          -0.8660   -1.5000    0.0000 C.ar    1  UNL1        0.0360
      5 C          -1.7321   -1.0000    0.0000 C.ar    1  UNL1       -0.0155
      6 C          -2.5981   -1.5000    0.0000 C.3     1  UNL1        0.0362
      7 C          -3.4641   -1.0000    0.0000 C.3     1  UNL1        0.0915
      8 C          -4.3301   -1.5000    0.0000 C.2     1  UNL1        0.2417
      9 O          -5.1962   -1.0000    0.0000 O.2     1  UNL1       -0.2733
     10 N          -4.3301   -2.5000    0.0000 N.am    1  UNL1       -0.2054
     11 C          -5.1962   -3.0000    0.0000 C.3     1  UNL1        0.1156
     12 C          -6.0622   -2.5000    0.0000 C.3     1  UNL1        0.0331
     13 C          -6.9282   -3.0000    0.0000 C.3     1  UNL1        0.0903
     14 C          -7.7942   -2.5000    0.0000 C.2     1  UNL1        0.2607
     15 O          -7.7942   -1.5000    0.0000 O.2     1  UNL1       -0.2717
     16 N          -8.6603   -3.0000    0.0000 N.am    1  UNL1       -0.0905
     17 N          -9.5263   -2.5000    0.0000 N.pl3   1  UNL1       -0.1256
     18 C         -10.3923   -3.0000    0.0000 C.ar    1  UNL1        0.0877
     19 C         -10.3923   -4.0000    0.0000 C.ar    1  UNL1        0.0081
     20 C         -11.2583   -4.5000    0.0000 C.ar    1  UNL1        0.0563
     21 N         -12.1244   -4.0000    0.0000 N.ar    1  UNL1       -0.2499
     22 C         -12.1244   -3.0000    0.0000 C.ar    1  UNL1        0.0822
     23 C         -12.9904   -2.5000    0.0000 C.ar    1  UNL1        0.0191
     24 C         -12.9904   -1.5000    0.0000 C.ar    1  UNL1        0.0015
     25 C         -12.1244   -1.0000    0.0000 C.ar    1  UNL1        0.0001
     26 C         -11.2583   -1.5000    0.0000 C.ar    1  UNL1        0.0028
     27 C         -11.2583   -2.5000    0.0000 C.ar    1  UNL1        0.0341
     28 C         -11.2583   -5.5000    0.0000 C.3     1  UNL1        0.0455
     29 C         -10.3923   -6.0000    0.0000 C.3     1  UNL1        0.0066
     30 C          -9.5263   -5.5000    0.0000 C.3     1  UNL1        0.0052
     31 C          -9.5263   -4.5000    0.0000 C.3     1  UNL1        0.0289
     32 C          -1.7321    0.0000    0.0000 C.ar    1  UNL1        0.0360
     33 C          -0.8660    0.5000    0.0000 C.ar    1  UNL1        0.1751
     34 O          -0.8660    1.5000    0.0000 O.3     1  UNL1       -0.4683
     35 C          -1.7321    2.0000    0.0000 C.3     1  UNL1        0.2526
     36 C           0.0000    0.0000    0.0000 C.ar    1  UNL1        0.2060
     37 O           0.8660    0.5000    0.0000 O.3     1  UNL1       -0.4654
     38 C           0.8660    1.5000    0.0000 C.3     1  UNL1        0.2528
@<TRIPOS>BOND
     1     1     2    1
     2     2     3    1
     3     3     4   ar
     4     4     5   ar
     5     5     6    1
     6     6     7    1
     7     7     8    1
     8     8     9    2
     9     8    10   am
    10    10    11    1
    11    11    12    1
    12    12    13    1
    13    13    14    1
    14    14    15    2
    15    14    16   am
    16    16    17    1
    17    17    18    1
    18    18    19   ar
    19    19    20   ar
    20    20    21   ar
    21    21    22   ar
    22    22    23   ar
    23    23    24   ar
    24    24    25   ar
    25    25    26   ar
    26    26    27   ar
    27    18    27   ar
    28    22    27   ar
    29    20    28    1
    30    28    29    1
    31    29    30    1
    32    30    31    1
    33    19    31    1
    34     5    32   ar
    35    32    33   ar
    36    33    34    1
    37    34    35    1
    38    33    36   ar
    39     3    36   ar
    40    36    37    1
    41    37    38    1
