MODEL 1
REMARK VINA RESULT:    -7.780      0.000      0.000
REMARK INTER + INTRA:          -9.021
REMARK INTER:                  -8.689
REMARK INTRA:                  -0.332
REMARK UNBOUND:                -0.332
REMARK  Name = cpd103.pdb
REMARK  2 active torsions:
REMARK  status: ('A' for Active; 'I' for Inactive)
REMARK    1  A    between atoms: C_2  and  C_4
REMARK    2  A    between atoms: C_8  and  N_9
REMARK                            x       y       z     vdW  Elec       q    Type
REMARK                         _______ _______ _______ _____ _____    ______ ____
ROOT
ATOM      1  C   UNL A   1      49.011 -38.392 -29.675  0.00  0.00    +0.065 A 
ATOM      2  C   UNL A   1      48.347 -37.169 -29.519  0.00  0.00    -0.048 A 
ATOM      3  C   UNL A   1      46.982 -37.137 -29.269  0.00  0.00    -0.059 A 
ATOM      4  C   UNL A   1      46.259 -38.329 -29.171  0.00  0.00    -0.040 A 
ATOM      5  C   UNL A   1      46.877 -39.585 -29.319  0.00  0.00    +0.045 A 
ATOM      6  C   UNL A   1      48.261 -39.585 -29.572  0.00  0.00    -0.026 A 
ENDROOT
BRANCH   5   7
ATOM      7  N   UNL A   1      46.125 -40.798 -29.216  0.00  0.00    -0.203 N 
ATOM      8  C   UNL A   1      45.457 -41.231 -28.099  0.00  0.00    +0.250 C 
ATOM      9  O   UNL A   1      45.324 -40.756 -26.982  0.00  0.00    -0.270 OA
ATOM     10  C   UNL A   1      44.821 -42.513 -28.421  0.00  0.00    +0.006 C 
ATOM     11  C   UNL A   1      45.115 -42.805 -29.681  0.00  0.00    +0.006 C 
ATOM     12  C   UNL A   1      45.950 -41.721 -30.215  0.00  0.00    +0.250 C 
ATOM     13  O   UNL A   1      46.339 -41.785 -31.367  0.00  0.00    -0.270 OA
ENDBRANCH   5   7
BRANCH   1  15
ATOM     14  O   UNL A   1      51.258 -37.851 -29.098  0.00  0.00    -0.241 OA
ATOM     15  C   UNL A   1      50.504 -38.421 -29.949  0.00  0.00    +0.387 C 
ATOM     16  O   UNL A   1      50.892 -39.011 -31.005  0.00  0.00    -0.241 OA
ENDBRANCH   1  15
TORSDOF 2
ENDMDL
MODEL 2
REMARK VINA RESULT:    -7.370      4.331      6.724
REMARK INTER + INTRA:          -8.564
REMARK INTER:                  -8.262
REMARK INTRA:                  -0.302
REMARK UNBOUND:                -0.332
REMARK  Name = cpd103.pdb
REMARK  2 active torsions:
REMARK  status: ('A' for Active; 'I' for Inactive)
REMARK    1  A    between atoms: C_2  and  C_4
REMARK    2  A    between atoms: C_8  and  N_9
REMARK                            x       y       z     vdW  Elec       q    Type
REMARK                         _______ _______ _______ _____ _____    ______ ____
ROOT
ATOM      1  C   UNL A   1      40.790 -38.042 -29.692  0.00  0.00    +0.065 A 
ATOM      2  C   UNL A   1      41.188 -37.309 -30.817  0.00  0.00    -0.048 A 
ATOM      3  C   UNL A   1      42.454 -37.483 -31.359  0.00  0.00    -0.059 A 
ATOM      4  C   UNL A   1      43.344 -38.395 -30.784  0.00  0.00    -0.040 A 
ATOM      5  C   UNL A   1      42.995 -39.157 -29.654  0.00  0.00    +0.045 A 
ATOM      6  C   UNL A   1      41.706 -38.959 -29.127  0.00  0.00    -0.026 A 
ENDROOT
BRANCH   5   7
ATOM      7  N   UNL A   1      43.916 -40.088 -29.076  0.00  0.00    -0.203 N 
ATOM      8  C   UNL A   1      44.470 -41.166 -29.717  0.00  0.00    +0.250 C 
ATOM      9  O   UNL A   1      44.352 -41.601 -30.851  0.00  0.00    -0.270 OA
ATOM     10  C   UNL A   1      45.353 -41.852 -28.768  0.00  0.00    +0.006 C 
ATOM     11  C   UNL A   1      45.306 -41.189 -27.620  0.00  0.00    +0.006 C 
ATOM     12  C   UNL A   1      44.391 -40.052 -27.790  0.00  0.00    +0.250 C 
ATOM     13  O   UNL A   1      44.198 -39.302 -26.851  0.00  0.00    -0.270 OA
ENDBRANCH   5   7
BRANCH   1  15
ATOM     14  O   UNL A   1      38.633 -37.034 -29.701  0.00  0.00    -0.241 OA
ATOM     15  C   UNL A   1      39.405 -37.848 -29.103  0.00  0.00    +0.387 C 
ATOM     16  O   UNL A   1      39.118 -38.511 -28.058  0.00  0.00    -0.241 OA
ENDBRANCH   1  15
TORSDOF 2
ENDMDL
MODEL 3
REMARK VINA RESULT:    -7.272      4.396      5.959
REMARK INTER + INTRA:          -8.454
REMARK INTER:                  -8.036
REMARK INTRA:                  -0.418
REMARK UNBOUND:                -0.332
REMARK  Name = cpd103.pdb
REMARK  2 active torsions:
REMARK  status: ('A' for Active; 'I' for Inactive)
REMARK    1  A    between atoms: C_2  and  C_4
REMARK    2  A    between atoms: C_8  and  N_9
REMARK                            x       y       z     vdW  Elec       q    Type
REMARK                         _______ _______ _______ _____ _____    ______ ____
ROOT
ATOM      1  C   UNL A   1      41.744 -37.261 -31.009  0.00  0.00    +0.065 A 
ATOM      2  C   UNL A   1      40.746 -37.631 -30.098  0.00  0.00    -0.048 A 
ATOM      3  C   UNL A   1      41.008 -38.572 -29.112  0.00  0.00    -0.059 A 
ATOM      4  C   UNL A   1      42.273 -39.158 -29.020  0.00  0.00    -0.040 A 
ATOM      5  C   UNL A   1      43.311 -38.822 -29.909  0.00  0.00    +0.045 A 
ATOM      6  C   UNL A   1      43.016 -37.866 -30.898  0.00  0.00    -0.026 A 
ENDROOT
BRANCH   5   7
ATOM      7  N   UNL A   1      44.602 -39.430 -29.803  0.00  0.00    -0.203 N 
ATOM      8  C   UNL A   1      45.707 -38.862 -29.223  0.00  0.00    +0.250 C 
ATOM      9  O   UNL A   1      45.892 -37.782 -28.684  0.00  0.00    -0.270 OA
ATOM     10  C   UNL A   1      46.815 -39.817 -29.328  0.00  0.00    +0.006 C 
ATOM     11  C   UNL A   1      46.360 -40.898 -29.947  0.00  0.00    +0.006 C 
ATOM     12  C   UNL A   1      44.943 -40.676 -30.263  0.00  0.00    +0.250 C 
ATOM     13  O   UNL A   1      44.320 -41.550 -30.839  0.00  0.00    -0.270 OA
ENDBRANCH   5   7
BRANCH   1  15
ATOM     14  O   UNL A   1      41.373 -35.017 -31.717  0.00  0.00    -0.241 OA
ATOM     15  C   UNL A   1      41.452 -36.231 -32.086  0.00  0.00    +0.387 C 
ATOM     16  O   UNL A   1      41.309 -36.657 -33.275  0.00  0.00    -0.241 OA
ENDBRANCH   1  15
TORSDOF 2
ENDMDL
MODEL 4
REMARK VINA RESULT:    -7.138      7.299      8.360
REMARK INTER + INTRA:          -8.305
REMARK INTER:                  -8.627
REMARK INTRA:                   0.322
REMARK UNBOUND:                -0.332
REMARK  Name = cpd103.pdb
REMARK  2 active torsions:
REMARK  status: ('A' for Active; 'I' for Inactive)
REMARK    1  A    between atoms: C_2  and  C_4
REMARK    2  A    between atoms: C_8  and  N_9
REMARK                            x       y       z     vdW  Elec       q    Type
REMARK                         _______ _______ _______ _____ _____    ______ ____
ROOT
ATOM      1  C   UNL A   1      41.893 -37.229 -31.131  0.00  0.00    +0.065 A 
ATOM      2  C   UNL A   1      41.656 -36.479 -32.290  0.00  0.00    -0.048 A 
ATOM      3  C   UNL A   1      40.393 -35.966 -32.551  0.00  0.00    -0.059 A 
ATOM      4  C   UNL A   1      39.345 -36.194 -31.655  0.00  0.00    -0.040 A 
ATOM      5  C   UNL A   1      39.528 -36.940 -30.476  0.00  0.00    +0.045 A 
ATOM      6  C   UNL A   1      40.819 -37.447 -30.239  0.00  0.00    -0.026 A 
ENDROOT
BRANCH   5   7
ATOM      7  N   UNL A   1      38.446 -37.167 -29.567  0.00  0.00    -0.203 N 
ATOM      8  C   UNL A   1      37.251 -36.495 -29.566  0.00  0.00    +0.250 C 
ATOM      9  O   UNL A   1      36.807 -35.600 -30.268  0.00  0.00    -0.270 OA
ATOM     10  C   UNL A   1      36.430 -37.034 -28.477  0.00  0.00    +0.006 C 
ATOM     11  C   UNL A   1      37.132 -37.984 -27.873  0.00  0.00    +0.006 C 
ATOM     12  C   UNL A   1      38.430 -38.089 -28.553  0.00  0.00    +0.250 C 
ATOM     13  O   UNL A   1      39.240 -38.908 -28.159  0.00  0.00    -0.270 OA
ENDBRANCH   5   7
BRANCH   1  15
ATOM     14  O   UNL A   1      43.361 -39.038 -30.638  0.00  0.00    -0.241 OA
ATOM     15  C   UNL A   1      43.276 -37.788 -30.851  0.00  0.00    +0.387 C 
ATOM     16  O   UNL A   1      44.247 -36.968 -30.850  0.00  0.00    -0.241 OA
ENDBRANCH   1  15
TORSDOF 2
ENDMDL
MODEL 5
REMARK VINA RESULT:    -7.138      7.342      8.375
REMARK INTER + INTRA:          -8.304
REMARK INTER:                  -8.621
REMARK INTRA:                   0.317
REMARK UNBOUND:                -0.332
REMARK  Name = cpd103.pdb
REMARK  2 active torsions:
REMARK  status: ('A' for Active; 'I' for Inactive)
REMARK    1  A    between atoms: C_2  and  C_4
REMARK    2  A    between atoms: C_8  and  N_9
REMARK                            x       y       z     vdW  Elec       q    Type
REMARK                         _______ _______ _______ _____ _____    ______ ____
ROOT
ATOM      1  C   UNL A   1      41.841 -37.200 -31.182  0.00  0.00    +0.065 A 
ATOM      2  C   UNL A   1      41.586 -36.461 -32.344  0.00  0.00    -0.048 A 
ATOM      3  C   UNL A   1      40.318 -35.956 -32.593  0.00  0.00    -0.059 A 
ATOM      4  C   UNL A   1      39.282 -36.183 -31.682  0.00  0.00    -0.040 A 
ATOM      5  C   UNL A   1      39.483 -36.919 -30.500  0.00  0.00    +0.045 A 
ATOM      6  C   UNL A   1      40.779 -37.418 -30.275  0.00  0.00    -0.026 A 
ENDROOT
BRANCH   5   7
ATOM      7  N   UNL A   1      38.413 -37.144 -29.577  0.00  0.00    -0.203 N 
ATOM      8  C   UNL A   1      38.410 -38.075 -28.570  0.00  0.00    +0.250 C 
ATOM      9  O   UNL A   1      39.234 -38.899 -28.207  0.00  0.00    -0.270 OA
ATOM     10  C   UNL A   1      37.129 -37.974 -27.864  0.00  0.00    +0.006 C 
ATOM     11  C   UNL A   1      36.420 -37.015 -28.446  0.00  0.00    +0.006 C 
ATOM     12  C   UNL A   1      37.221 -36.466 -29.548  0.00  0.00    +0.250 C 
ATOM     13  O   UNL A   1      36.759 -35.566 -30.225  0.00  0.00    -0.270 OA
ENDBRANCH   5   7
BRANCH   1  15
ATOM     14  O   UNL A   1      43.337 -39.011 -30.787  0.00  0.00    -0.241 OA
ATOM     15  C   UNL A   1      43.230 -37.750 -30.915  0.00  0.00    +0.387 C 
ATOM     16  O   UNL A   1      44.183 -36.913 -30.839  0.00  0.00    -0.241 OA
ENDBRANCH   1  15
TORSDOF 2
ENDMDL
MODEL 6
REMARK VINA RESULT:    -7.024      7.836     10.033
REMARK INTER + INTRA:          -8.177
REMARK INTER:                  -8.464
REMARK INTRA:                   0.287
REMARK UNBOUND:                -0.332
REMARK  Name = cpd103.pdb
REMARK  2 active torsions:
REMARK  status: ('A' for Active; 'I' for Inactive)
REMARK    1  A    between atoms: C_2  and  C_4
REMARK    2  A    between atoms: C_8  and  N_9
REMARK                            x       y       z     vdW  Elec       q    Type
REMARK                         _______ _______ _______ _____ _____    ______ ____
ROOT
ATOM      1  C   UNL A   1      37.242 -36.830 -29.182  0.00  0.00    +0.065 A 
ATOM      2  C   UNL A   1      36.668 -35.778 -29.906  0.00  0.00    -0.048 A 
ATOM      3  C   UNL A   1      37.351 -35.197 -30.965  0.00  0.00    -0.059 A 
ATOM      4  C   UNL A   1      38.621 -35.660 -31.318  0.00  0.00    -0.040 A 
ATOM      5  C   UNL A   1      39.245 -36.713 -30.624  0.00  0.00    +0.045 A 
ATOM      6  C   UNL A   1      38.528 -37.282 -29.556  0.00  0.00    -0.026 A 
ENDROOT
BRANCH   5   7
ATOM      7  N   UNL A   1      40.547 -37.177 -30.996  0.00  0.00    -0.203 N 
ATOM      8  C   UNL A   1      41.165 -36.941 -32.197  0.00  0.00    +0.250 C 
ATOM      9  O   UNL A   1      40.821 -36.330 -33.196  0.00  0.00    -0.270 OA
ATOM     10  C   UNL A   1      42.479 -37.591 -32.165  0.00  0.00    +0.006 C 
ATOM     11  C   UNL A   1      42.610 -38.181 -30.984  0.00  0.00    +0.006 C 
ATOM     12  C   UNL A   1      41.384 -37.930 -30.214  0.00  0.00    +0.250 C 
ATOM     13  O   UNL A   1      41.287 -38.385 -29.089  0.00  0.00    -0.270 OA
ENDBRANCH   5   7
BRANCH   1  15
ATOM     14  O   UNL A   1      36.912 -38.587 -27.608  0.00  0.00    -0.241 OA
ATOM     15  C   UNL A   1      36.491 -37.462 -28.024  0.00  0.00    +0.387 C 
ATOM     16  O   UNL A   1      35.498 -36.822 -27.555  0.00  0.00    -0.241 OA
ENDBRANCH   1  15
TORSDOF 2
ENDMDL
MODEL 7
REMARK VINA RESULT:    -6.980      4.325      6.117
REMARK INTER + INTRA:          -8.128
REMARK INTER:                  -7.901
REMARK INTRA:                  -0.227
REMARK UNBOUND:                -0.332
REMARK  Name = cpd103.pdb
REMARK  2 active torsions:
REMARK  status: ('A' for Active; 'I' for Inactive)
REMARK    1  A    between atoms: C_2  and  C_4
REMARK    2  A    between atoms: C_8  and  N_9
REMARK                            x       y       z     vdW  Elec       q    Type
REMARK                         _______ _______ _______ _____ _____    ______ ____
ROOT
ATOM      1  C   UNL A   1      41.719 -37.478 -30.969  0.00  0.00    +0.065 A 
ATOM      2  C   UNL A   1      40.567 -37.480 -30.173  0.00  0.00    -0.048 A 
ATOM      3  C   UNL A   1      40.492 -38.286 -29.045  0.00  0.00    -0.059 A 
ATOM      4  C   UNL A   1      41.570 -39.104 -28.695  0.00  0.00    -0.040 A 
ATOM      5  C   UNL A   1      42.750 -39.141 -29.459  0.00  0.00    +0.045 A 
ATOM      6  C   UNL A   1      42.797 -38.314 -30.596  0.00  0.00    -0.026 A 
ENDROOT
BRANCH   5   7
ATOM      7  N   UNL A   1      43.846 -39.984 -29.090  0.00  0.00    -0.203 N 
ATOM      8  C   UNL A   1      44.452 -40.908 -29.902  0.00  0.00    +0.250 C 
ATOM      9  O   UNL A   1      44.253 -41.246 -31.058  0.00  0.00    -0.270 OA
ATOM     10  C   UNL A   1      45.525 -41.550 -29.135  0.00  0.00    +0.006 C 
ATOM     11  C   UNL A   1      45.534 -41.011 -27.923  0.00  0.00    +0.006 C 
ATOM     12  C   UNL A   1      44.467 -40.004 -27.867  0.00  0.00    +0.250 C 
ATOM     13  O   UNL A   1      44.294 -39.380 -26.836  0.00  0.00    -0.270 OA
ENDBRANCH   5   7
BRANCH   1  15
ATOM     14  O   UNL A   1      41.256 -37.038 -33.263  0.00  0.00    -0.241 OA
ATOM     15  C   UNL A   1      41.796 -36.595 -32.201  0.00  0.00    +0.387 C 
ATOM     16  O   UNL A   1      42.393 -35.480 -32.082  0.00  0.00    -0.241 OA
ENDBRANCH   1  15
TORSDOF 2
ENDMDL
MODEL 8
REMARK VINA RESULT:    -6.460      8.197     10.406
REMARK INTER + INTRA:          -7.547
REMARK INTER:                  -7.628
REMARK INTRA:                   0.082
REMARK UNBOUND:                -0.332
REMARK  Name = cpd103.pdb
REMARK  2 active torsions:
REMARK  status: ('A' for Active; 'I' for Inactive)
REMARK    1  A    between atoms: C_2  and  C_4
REMARK    2  A    between atoms: C_8  and  N_9
REMARK                            x       y       z     vdW  Elec       q    Type
REMARK                         _______ _______ _______ _____ _____    ______ ____
ROOT
ATOM      1  C   UNL A   1      37.079 -37.949 -29.278  0.00  0.00    +0.065 A 
ATOM      2  C   UNL A   1      36.021 -37.107 -29.644  0.00  0.00    -0.048 A 
ATOM      3  C   UNL A   1      36.247 -36.004 -30.455  0.00  0.00    -0.059 A 
ATOM      4  C   UNL A   1      37.537 -35.723 -30.914  0.00  0.00    -0.040 A 
ATOM      5  C   UNL A   1      38.636 -36.536 -30.577  0.00  0.00    +0.045 A 
ATOM      6  C   UNL A   1      38.376 -37.646 -29.754  0.00  0.00    -0.026 A 
ENDROOT
BRANCH   5   7
ATOM      7  N   UNL A   1      39.951 -36.237 -31.054  0.00  0.00    -0.203 N 
ATOM      8  C   UNL A   1      41.119 -36.470 -30.374  0.00  0.00    +0.250 C 
ATOM      9  O   UNL A   1      41.352 -36.950 -29.276  0.00  0.00    -0.270 OA
ATOM     10  C   UNL A   1      42.231 -36.019 -31.217  0.00  0.00    +0.006 C 
ATOM     11  C   UNL A   1      41.718 -35.543 -32.343  0.00  0.00    +0.006 C 
ATOM     12  C   UNL A   1      40.257 -35.671 -32.265  0.00  0.00    +0.250 C 
ATOM     13  O   UNL A   1      39.577 -35.292 -33.202  0.00  0.00    -0.270 OA
ENDBRANCH   5   7
BRANCH   1  15
ATOM     14  O   UNL A   1      35.679 -39.242 -27.851  0.00  0.00    -0.241 OA
ATOM     15  C   UNL A   1      36.827 -39.155 -28.391  0.00  0.00    +0.387 C 
ATOM     16  O   UNL A   1      37.777 -39.986 -28.254  0.00  0.00    -0.241 OA
ENDBRANCH   1  15
TORSDOF 2
ENDMDL
MODEL 9
REMARK VINA RESULT:    -6.362     10.988     12.692
REMARK INTER + INTRA:          -7.437
REMARK INTER:                  -7.041
REMARK INTRA:                  -0.397
REMARK UNBOUND:                -0.332
REMARK  Name = cpd103.pdb
REMARK  2 active torsions:
REMARK  status: ('A' for Active; 'I' for Inactive)
REMARK    1  A    between atoms: C_2  and  C_4
REMARK    2  A    between atoms: C_8  and  N_9
REMARK                            x       y       z     vdW  Elec       q    Type
REMARK                         _______ _______ _______ _____ _____    ______ ____
ROOT
ATOM      1  C   UNL A   1      34.807 -33.928 -31.068  0.00  0.00    +0.065 A 
ATOM      2  C   UNL A   1      33.775 -34.849 -31.287  0.00  0.00    -0.048 A 
ATOM      3  C   UNL A   1      34.045 -36.209 -31.338  0.00  0.00    -0.059 A 
ATOM      4  C   UNL A   1      35.353 -36.671 -31.170  0.00  0.00    -0.040 A 
ATOM      5  C   UNL A   1      36.427 -35.789 -30.947  0.00  0.00    +0.045 A 
ATOM      6  C   UNL A   1      36.122 -34.417 -30.901  0.00  0.00    -0.026 A 
ENDROOT
BRANCH   5   7
ATOM      7  N   UNL A   1      37.762 -36.276 -30.776  0.00  0.00    -0.203 N 
ATOM      8  C   UNL A   1      38.781 -36.146 -31.685  0.00  0.00    +0.250 C 
ATOM      9  O   UNL A   1      38.839 -35.632 -32.791  0.00  0.00    -0.270 OA
ATOM     10  C   UNL A   1      39.976 -36.781 -31.119  0.00  0.00    +0.006 C 
ATOM     11  C   UNL A   1      39.652 -37.258 -29.924  0.00  0.00    +0.006 C 
ATOM     12  C   UNL A   1      38.238 -36.947 -29.680  0.00  0.00    +0.250 C 
ATOM     13  O   UNL A   1      37.726 -37.297 -28.631  0.00  0.00    -0.270 OA
ENDBRANCH   5   7
BRANCH   1  15
ATOM     14  O   UNL A   1      34.803 -31.754 -32.042  0.00  0.00    -0.241 OA
ATOM     15  C   UNL A   1      34.506 -32.441 -31.014  0.00  0.00    +0.387 C 
ATOM     16  O   UNL A   1      33.980 -31.991 -29.948  0.00  0.00    -0.241 OA
ENDBRANCH   1  15
TORSDOF 2
ENDMDL
MODEL 10
REMARK VINA RESULT:    -6.328      9.540     10.475
REMARK INTER + INTRA:          -7.400
REMARK INTER:                  -6.980
REMARK INTRA:                  -0.420
REMARK UNBOUND:                -0.332
REMARK  Name = cpd103.pdb
REMARK  2 active torsions:
REMARK  status: ('A' for Active; 'I' for Inactive)
REMARK    1  A    between atoms: C_2  and  C_4
REMARK    2  A    between atoms: C_8  and  N_9
REMARK                            x       y       z     vdW  Elec       q    Type
REMARK                         _______ _______ _______ _____ _____    ______ ____
ROOT
ATOM      1  C   UNL A   1      38.308 -35.512 -31.504  0.00  0.00    +0.065 A 
ATOM      2  C   UNL A   1      37.327 -34.549 -31.236  0.00  0.00    -0.048 A 
ATOM      3  C   UNL A   1      36.157 -34.901 -30.577  0.00  0.00    -0.059 A 
ATOM      4  C   UNL A   1      35.950 -36.224 -30.176  0.00  0.00    -0.040 A 
ATOM      5  C   UNL A   1      36.903 -37.230 -30.420  0.00  0.00    +0.045 A 
ATOM      6  C   UNL A   1      38.078 -36.843 -31.089  0.00  0.00    -0.026 A 
ENDROOT
BRANCH   5   7
ATOM      7  N   UNL A   1      36.677 -38.580 -30.003  0.00  0.00    -0.203 N 
ATOM      8  C   UNL A   1      37.203 -39.167 -28.881  0.00  0.00    +0.250 C 
ATOM      9  O   UNL A   1      37.939 -38.752 -28.000  0.00  0.00    -0.270 OA
ATOM     10  C   UNL A   1      36.723 -40.553 -28.828  0.00  0.00    +0.006 C 
ATOM     11  C   UNL A   1      35.949 -40.753 -29.886  0.00  0.00    +0.006 C 
ATOM     12  C   UNL A   1      35.902 -39.504 -30.657  0.00  0.00    +0.250 C 
ATOM     13  O   UNL A   1      35.242 -39.462 -31.679  0.00  0.00    -0.270 OA
ENDBRANCH   5   7
BRANCH   1  15
ATOM     14  O   UNL A   1      40.042 -35.946 -33.078  0.00  0.00    -0.241 OA
ATOM     15  C   UNL A   1      39.586 -35.121 -32.225  0.00  0.00    +0.387 C 
ATOM     16  O   UNL A   1      40.105 -34.000 -31.925  0.00  0.00    -0.241 OA
ENDBRANCH   1  15
TORSDOF 2
ENDMDL
MODEL 11
REMARK VINA RESULT:    -6.307      9.054     10.029
REMARK INTER + INTRA:          -7.376
REMARK INTER:                  -7.023
REMARK INTRA:                  -0.353
REMARK UNBOUND:                -0.332
REMARK  Name = cpd103.pdb
REMARK  2 active torsions:
REMARK  status: ('A' for Active; 'I' for Inactive)
REMARK    1  A    between atoms: C_2  and  C_4
REMARK    2  A    between atoms: C_8  and  N_9
REMARK                            x       y       z     vdW  Elec       q    Type
REMARK                         _______ _______ _______ _____ _____    ______ ____
ROOT
ATOM      1  C   UNL A   1      40.320 -36.547 -31.045  0.00  0.00    +0.065 A 
ATOM      2  C   UNL A   1      40.821 -37.211 -29.918  0.00  0.00    -0.048 A 
ATOM      3  C   UNL A   1      39.962 -37.872 -29.051  0.00  0.00    -0.059 A 
ATOM      4  C   UNL A   1      38.586 -37.879 -29.296  0.00  0.00    -0.040 A 
ATOM      5  C   UNL A   1      38.030 -37.228 -30.413  0.00  0.00    +0.045 A 
ATOM      6  C   UNL A   1      38.925 -36.568 -31.274  0.00  0.00    -0.026 A 
ENDROOT
BRANCH   5   7
ATOM      7  N   UNL A   1      36.619 -37.243 -30.652  0.00  0.00    -0.203 N 
ATOM      8  C   UNL A   1      35.795 -36.148 -30.636  0.00  0.00    +0.250 C 
ATOM      9  O   UNL A   1      36.003 -34.962 -30.434  0.00  0.00    -0.270 OA
ATOM     10  C   UNL A   1      34.432 -36.602 -30.930  0.00  0.00    +0.006 C 
ATOM     11  C   UNL A   1      34.473 -37.916 -31.108  0.00  0.00    +0.006 C 
ATOM     12  C   UNL A   1      35.865 -38.353 -30.935  0.00  0.00    +0.250 C 
ATOM     13  O   UNL A   1      36.135 -39.534 -31.057  0.00  0.00    -0.270 OA
ENDBRANCH   5   7
BRANCH   1  15
ATOM     14  O   UNL A   1      42.476 -35.719 -31.625  0.00  0.00    -0.241 OA
ATOM     15  C   UNL A   1      41.263 -35.827 -31.991  0.00  0.00    +0.387 C 
ATOM     16  O   UNL A   1      40.774 -35.384 -33.077  0.00  0.00    -0.241 OA
ENDBRANCH   1  15
TORSDOF 2
ENDMDL
MODEL 12
REMARK VINA RESULT:    -6.300      9.259     10.475
REMARK INTER + INTRA:          -7.368
REMARK INTER:                  -6.957
REMARK INTRA:                  -0.411
REMARK UNBOUND:                -0.332
REMARK  Name = cpd103.pdb
REMARK  2 active torsions:
REMARK  status: ('A' for Active; 'I' for Inactive)
REMARK    1  A    between atoms: C_2  and  C_4
REMARK    2  A    between atoms: C_8  and  N_9
REMARK                            x       y       z     vdW  Elec       q    Type
REMARK                         _______ _______ _______ _____ _____    ______ ____
ROOT
ATOM      1  C   UNL A   1      38.442 -35.657 -31.390  0.00  0.00    +0.065 A 
ATOM      2  C   UNL A   1      37.414 -34.713 -31.284  0.00  0.00    -0.048 A 
ATOM      3  C   UNL A   1      36.174 -35.076 -30.777  0.00  0.00    -0.059 A 
ATOM      4  C   UNL A   1      35.942 -36.392 -30.368  0.00  0.00    -0.040 A 
ATOM      5  C   UNL A   1      36.940 -37.381 -30.453  0.00  0.00    +0.045 A 
ATOM      6  C   UNL A   1      38.186 -36.982 -30.970  0.00  0.00    -0.026 A 
ENDROOT
BRANCH   5   7
ATOM      7  N   UNL A   1      36.690 -38.725 -30.030  0.00  0.00    -0.203 N 
ATOM      8  C   UNL A   1      35.943 -39.650 -30.712  0.00  0.00    +0.250 C 
ATOM      9  O   UNL A   1      35.336 -39.602 -31.770  0.00  0.00    -0.270 OA
ATOM     10  C   UNL A   1      35.940 -40.893 -29.933  0.00  0.00    +0.006 C 
ATOM     11  C   UNL A   1      36.663 -40.686 -28.840  0.00  0.00    +0.006 C 
ATOM     12  C   UNL A   1      37.155 -39.303 -28.877  0.00  0.00    +0.250 C 
ATOM     13  O   UNL A   1      37.848 -38.896 -27.961  0.00  0.00    -0.270 OA
ENDBRANCH   5   7
BRANCH   1  15
ATOM     14  O   UNL A   1      40.570 -36.192 -32.316  0.00  0.00    -0.241 OA
ATOM     15  C   UNL A   1      39.796 -35.254 -31.945  0.00  0.00    +0.387 C 
ATOM     16  O   UNL A   1      40.058 -34.012 -31.998  0.00  0.00    -0.241 OA
ENDBRANCH   1  15
TORSDOF 2
ENDMDL
MODEL 13
REMARK VINA RESULT:    -6.218     11.196     12.382
REMARK INTER + INTRA:          -7.276
REMARK INTER:                  -6.852
REMARK INTRA:                  -0.424
REMARK UNBOUND:                -0.332
REMARK  Name = cpd103.pdb
REMARK  2 active torsions:
REMARK  status: ('A' for Active; 'I' for Inactive)
REMARK    1  A    between atoms: C_2  and  C_4
REMARK    2  A    between atoms: C_8  and  N_9
REMARK                            x       y       z     vdW  Elec       q    Type
REMARK                         _______ _______ _______ _____ _____    ______ ____
ROOT
ATOM      1  C   UNL A   1      38.481 -36.023 -31.044  0.00  0.00    +0.065 A 
ATOM      2  C   UNL A   1      38.372 -36.770 -29.865  0.00  0.00    -0.048 A 
ATOM      3  C   UNL A   1      37.167 -36.830 -29.178  0.00  0.00    -0.059 A 
ATOM      4  C   UNL A   1      36.050 -36.143 -29.661  0.00  0.00    -0.040 A 
ATOM      5  C   UNL A   1      36.104 -35.378 -30.841  0.00  0.00    +0.045 A 
ATOM      6  C   UNL A   1      37.339 -35.337 -31.515  0.00  0.00    -0.026 A 
ENDROOT
BRANCH   5   7
ATOM      7  N   UNL A   1      34.953 -34.680 -31.324  0.00  0.00    -0.203 N 
ATOM      8  C   UNL A   1      34.540 -33.439 -30.911  0.00  0.00    +0.250 C 
ATOM      9  O   UNL A   1      34.989 -32.650 -30.095  0.00  0.00    -0.270 OA
ATOM     10  C   UNL A   1      33.324 -33.096 -31.655  0.00  0.00    +0.006 C 
ATOM     11  C   UNL A   1      33.048 -34.107 -32.468  0.00  0.00    +0.006 C 
ATOM     12  C   UNL A   1      34.077 -35.137 -32.276  0.00  0.00    +0.250 C 
ATOM     13  O   UNL A   1      34.019 -36.163 -32.928  0.00  0.00    -0.270 OA
ENDBRANCH   5   7
BRANCH   1  15
ATOM     14  O   UNL A   1      40.730 -36.729 -31.386  0.00  0.00    -0.241 OA
ATOM     15  C   UNL A   1      39.801 -35.961 -31.791  0.00  0.00    +0.387 C 
ATOM     16  O   UNL A   1      39.882 -35.149 -32.765  0.00  0.00    -0.241 OA
ENDBRANCH   1  15
TORSDOF 2
ENDMDL
MODEL 14
REMARK VINA RESULT:    -6.213      8.934     10.005
REMARK INTER + INTRA:          -7.271
REMARK INTER:                  -6.955
REMARK INTRA:                  -0.316
REMARK UNBOUND:                -0.332
REMARK  Name = cpd103.pdb
REMARK  2 active torsions:
REMARK  status: ('A' for Active; 'I' for Inactive)
REMARK    1  A    between atoms: C_2  and  C_4
REMARK    2  A    between atoms: C_8  and  N_9
REMARK                            x       y       z     vdW  Elec       q    Type
REMARK                         _______ _______ _______ _____ _____    ______ ____
ROOT
ATOM      1  C   UNL A   1      40.575 -36.933 -30.911  0.00  0.00    +0.065 A 
ATOM      2  C   UNL A   1      40.835 -37.602 -29.709  0.00  0.00    -0.048 A 
ATOM      3  C   UNL A   1      39.792 -37.991 -28.879  0.00  0.00    -0.059 A 
ATOM      4  C   UNL A   1      38.470 -37.716 -29.240  0.00  0.00    -0.040 A 
ATOM      5  C   UNL A   1      38.153 -37.047 -30.436  0.00  0.00    +0.045 A 
ATOM      6  C   UNL A   1      39.231 -36.665 -31.256  0.00  0.00    -0.026 A 
ENDROOT
BRANCH   5   7
ATOM      7  N   UNL A   1      36.794 -36.771 -30.793  0.00  0.00    -0.203 N 
ATOM      8  C   UNL A   1      35.818 -37.711 -31.003  0.00  0.00    +0.250 C 
ATOM      9  O   UNL A   1      35.823 -38.931 -30.952  0.00  0.00    -0.270 OA
ATOM     10  C   UNL A   1      34.579 -37.007 -31.347  0.00  0.00    +0.006 C 
ATOM     11  C   UNL A   1      34.836 -35.706 -31.335  0.00  0.00    +0.006 C 
ATOM     12  C   UNL A   1      36.251 -35.527 -30.982  0.00  0.00    +0.250 C 
ATOM     13  O   UNL A   1      36.706 -34.400 -30.912  0.00  0.00    -0.270 OA
ENDBRANCH   5   7
BRANCH   1  15
ATOM     14  O   UNL A   1      41.426 -35.780 -32.813  0.00  0.00    -0.241 OA
ATOM     15  C   UNL A   1      41.719 -36.510 -31.814  0.00  0.00    +0.387 C 
ATOM     16  O   UNL A   1      42.884 -36.915 -31.507  0.00  0.00    -0.241 OA
ENDBRANCH   1  15
TORSDOF 2
ENDMDL
MODEL 15
REMARK VINA RESULT:    -6.120     10.577     12.142
REMARK INTER + INTRA:          -7.167
REMARK INTER:                  -6.770
REMARK INTRA:                  -0.397
REMARK UNBOUND:                -0.332
REMARK  Name = cpd103.pdb
REMARK  2 active torsions:
REMARK  status: ('A' for Active; 'I' for Inactive)
REMARK    1  A    between atoms: C_2  and  C_4
REMARK    2  A    between atoms: C_8  and  N_9
REMARK                            x       y       z     vdW  Elec       q    Type
REMARK                         _______ _______ _______ _____ _____    ______ ____
ROOT
ATOM      1  C   UNL A   1      38.133 -37.190 -29.556  0.00  0.00    +0.065 A 
ATOM      2  C   UNL A   1      39.233 -36.920 -30.379  0.00  0.00    -0.048 A 
ATOM      3  C   UNL A   1      39.100 -36.084 -31.480  0.00  0.00    -0.059 A 
ATOM      4  C   UNL A   1      37.863 -35.505 -31.775  0.00  0.00    -0.040 A 
ATOM      5  C   UNL A   1      36.726 -35.744 -30.981  0.00  0.00    +0.045 A 
ATOM      6  C   UNL A   1      36.892 -36.594 -29.873  0.00  0.00    -0.026 A 
ENDROOT
BRANCH   5   7
ATOM      7  N   UNL A   1      35.465 -35.144 -31.295  0.00  0.00    -0.203 N 
ATOM      8  C   UNL A   1      35.156 -33.815 -31.157  0.00  0.00    +0.250 C 
ATOM      9  O   UNL A   1      35.801 -32.855 -30.766  0.00  0.00    -0.270 OA
ATOM     10  C   UNL A   1      33.767 -33.626 -31.588  0.00  0.00    +0.006 C 
ATOM     11  C   UNL A   1      33.295 -34.808 -31.961  0.00  0.00    +0.006 C 
ATOM     12  C   UNL A   1      34.364 -35.800 -31.783  0.00  0.00    +0.250 C 
ATOM     13  O   UNL A   1      34.146 -36.964 -32.068  0.00  0.00    -0.270 OA
ENDBRANCH   5   7
BRANCH   1  15
ATOM     14  O   UNL A   1      39.438 -38.598 -28.146  0.00  0.00    -0.241 OA
ATOM     15  C   UNL A   1      38.284 -38.105 -28.354  0.00  0.00    +0.387 C 
ATOM     16  O   UNL A   1      37.250 -38.310 -27.645  0.00  0.00    -0.241 OA
ENDBRANCH   1  15
TORSDOF 2
ENDMDL
MODEL 16
REMARK VINA RESULT:    -6.024      9.572     11.321
REMARK INTER + INTRA:          -7.060
REMARK INTER:                  -6.691
REMARK INTRA:                  -0.369
REMARK UNBOUND:                -0.332
REMARK  Name = cpd103.pdb
REMARK  2 active torsions:
REMARK  status: ('A' for Active; 'I' for Inactive)
REMARK    1  A    between atoms: C_2  and  C_4
REMARK    2  A    between atoms: C_8  and  N_9
REMARK                            x       y       z     vdW  Elec       q    Type
REMARK                         _______ _______ _______ _____ _____    ______ ____
ROOT
ATOM      1  C   UNL A   1      35.840 -35.162 -30.633  0.00  0.00    +0.065 A 
ATOM      2  C   UNL A   1      35.010 -36.289 -30.636  0.00  0.00    -0.048 A 
ATOM      3  C   UNL A   1      35.552 -37.562 -30.747  0.00  0.00    -0.059 A 
ATOM      4  C   UNL A   1      36.936 -37.728 -30.857  0.00  0.00    -0.040 A 
ATOM      5  C   UNL A   1      37.815 -36.629 -30.860  0.00  0.00    +0.045 A 
ATOM      6  C   UNL A   1      37.236 -35.352 -30.746  0.00  0.00    -0.026 A 
ENDROOT
BRANCH   5   7
ATOM      7  N   UNL A   1      39.230 -36.813 -30.973  0.00  0.00    -0.203 N 
ATOM      8  C   UNL A   1      40.035 -37.406 -30.035  0.00  0.00    +0.250 C 
ATOM      9  O   UNL A   1      39.804 -37.900 -28.943  0.00  0.00    -0.270 OA
ATOM     10  C   UNL A   1      41.411 -37.390 -30.545  0.00  0.00    +0.006 C 
ATOM     11  C   UNL A   1      41.394 -36.806 -31.736  0.00  0.00    +0.006 C 
ATOM     12  C   UNL A   1      40.007 -36.426 -32.035  0.00  0.00    +0.250 C 
ATOM     13  O   UNL A   1      39.759 -35.870 -33.089  0.00  0.00    -0.270 OA
ENDBRANCH   5   7
BRANCH   1  15
ATOM     14  O   UNL A   1      34.492 -33.553 -29.508  0.00  0.00    -0.241 OA
ATOM     15  C   UNL A   1      35.242 -33.772 -30.511  0.00  0.00    +0.387 C 
ATOM     16  O   UNL A   1      35.532 -32.931 -31.419  0.00  0.00    -0.241 OA
ENDBRANCH   1  15
TORSDOF 2
ENDMDL
MODEL 17
REMARK VINA RESULT:    -5.989     11.200     12.943
REMARK INTER + INTRA:          -7.021
REMARK INTER:                  -6.600
REMARK INTRA:                  -0.422
REMARK UNBOUND:                -0.332
REMARK  Name = cpd103.pdb
REMARK  2 active torsions:
REMARK  status: ('A' for Active; 'I' for Inactive)
REMARK    1  A    between atoms: C_2  and  C_4
REMARK    2  A    between atoms: C_8  and  N_9
REMARK                            x       y       z     vdW  Elec       q    Type
REMARK                         _______ _______ _______ _____ _____    ______ ____
ROOT
ATOM      1  C   UNL A   1      37.289 -37.025 -29.187  0.00  0.00    +0.065 A 
ATOM      2  C   UNL A   1      38.472 -36.837 -29.913  0.00  0.00    -0.048 A 
ATOM      3  C   UNL A   1      38.506 -35.957 -30.986  0.00  0.00    -0.059 A 
ATOM      4  C   UNL A   1      37.357 -35.250 -31.350  0.00  0.00    -0.040 A 
ATOM      5  C   UNL A   1      36.143 -35.401 -30.655  0.00  0.00    +0.045 A 
ATOM      6  C   UNL A   1      36.139 -36.299 -29.572  0.00  0.00    -0.026 A 
ENDROOT
BRANCH   5   7
ATOM      7  N   UNL A   1      34.974 -34.670 -31.038  0.00  0.00    -0.203 N 
ATOM      8  C   UNL A   1      34.116 -35.012 -32.052  0.00  0.00    +0.250 C 
ATOM      9  O   UNL A   1      34.101 -35.943 -32.841  0.00  0.00    -0.270 OA
ATOM     10  C   UNL A   1      33.056 -34.000 -32.108  0.00  0.00    +0.006 C 
ATOM     11  C   UNL A   1      33.299 -33.107 -31.157  0.00  0.00    +0.006 C 
ATOM     12  C   UNL A   1      34.524 -33.513 -30.456  0.00  0.00    +0.250 C 
ATOM     13  O   UNL A   1      34.935 -32.829 -29.536  0.00  0.00    -0.270 OA
ENDBRANCH   5   7
BRANCH   1  15
ATOM     14  O   UNL A   1      36.282 -37.880 -27.205  0.00  0.00    -0.241 OA
ATOM     15  C   UNL A   1      37.256 -37.989 -28.014  0.00  0.00    +0.387 C 
ATOM     16  O   UNL A   1      38.203 -38.832 -27.927  0.00  0.00    -0.241 OA
ENDBRANCH   1  15
TORSDOF 2
ENDMDL
MODEL 18
REMARK VINA RESULT:    -5.803     31.642     33.624
REMARK INTER + INTRA:          -6.814
REMARK INTER:                  -6.517
REMARK INTRA:                  -0.297
REMARK UNBOUND:                -0.332
REMARK  Name = cpd103.pdb
REMARK  2 active torsions:
REMARK  status: ('A' for Active; 'I' for Inactive)
REMARK    1  A    between atoms: C_2  and  C_4
REMARK    2  A    between atoms: C_8  and  N_9
REMARK                            x       y       z     vdW  Elec       q    Type
REMARK                         _______ _______ _______ _____ _____    ______ ____
ROOT
ATOM      1  C   UNL A   1      64.259 -25.852  -6.506  0.00  0.00    +0.065 A 
ATOM      2  C   UNL A   1      63.846 -25.249  -7.700  0.00  0.00    -0.048 A 
ATOM      3  C   UNL A   1      63.389 -23.938  -7.706  0.00  0.00    -0.059 A 
ATOM      4  C   UNL A   1      63.337 -23.209  -6.515  0.00  0.00    -0.040 A 
ATOM      5  C   UNL A   1      63.740 -23.766  -5.287  0.00  0.00    +0.045 A 
ATOM      6  C   UNL A   1      64.198 -25.096  -5.313  0.00  0.00    -0.026 A 
ENDROOT
BRANCH   5   7
ATOM      7  N   UNL A   1      63.681 -23.008  -4.075  0.00  0.00    -0.203 N 
ATOM      8  C   UNL A   1      62.549 -22.455  -3.533  0.00  0.00    +0.250 C 
ATOM      9  O   UNL A   1      61.382 -22.449  -3.890  0.00  0.00    -0.270 OA
ATOM     10  C   UNL A   1      62.930 -21.766  -2.295  0.00  0.00    +0.006 C 
ATOM     11  C   UNL A   1      64.238 -21.920  -2.133  0.00  0.00    +0.006 C 
ATOM     12  C   UNL A   1      64.744 -22.713  -3.261  0.00  0.00    +0.250 C 
ATOM     13  O   UNL A   1      65.932 -22.976  -3.314  0.00  0.00    -0.270 OA
ENDBRANCH   5   7
BRANCH   1  15
ATOM     14  O   UNL A   1      66.012 -27.460  -6.628  0.00  0.00    -0.241 OA
ATOM     15  C   UNL A   1      64.758 -27.286  -6.506  0.00  0.00    +0.387 C 
ATOM     16  O   UNL A   1      63.890 -28.205  -6.383  0.00  0.00    -0.241 OA
ENDBRANCH   1  15
TORSDOF 2
ENDMDL
MODEL 19
REMARK VINA RESULT:    -5.764     31.817     33.824
REMARK INTER + INTRA:          -6.770
REMARK INTER:                  -6.443
REMARK INTRA:                  -0.327
REMARK UNBOUND:                -0.332
REMARK  Name = cpd103.pdb
REMARK  2 active torsions:
REMARK  status: ('A' for Active; 'I' for Inactive)
REMARK    1  A    between atoms: C_2  and  C_4
REMARK    2  A    between atoms: C_8  and  N_9
REMARK                            x       y       z     vdW  Elec       q    Type
REMARK                         _______ _______ _______ _____ _____    ______ ____
ROOT
ATOM      1  C   UNL A   1      64.272 -25.772  -6.506  0.00  0.00    +0.065 A 
ATOM      2  C   UNL A   1      63.744 -25.120  -7.627  0.00  0.00    -0.048 A 
ATOM      3  C   UNL A   1      63.320 -23.801  -7.539  0.00  0.00    -0.059 A 
ATOM      4  C   UNL A   1      63.417 -23.113  -6.327  0.00  0.00    -0.040 A 
ATOM      5  C   UNL A   1      63.939 -23.720  -5.170  0.00  0.00    +0.045 A 
ATOM      6  C   UNL A   1      64.361 -25.057  -5.290  0.00  0.00    -0.026 A 
ENDROOT
BRANCH   5   7
ATOM      7  N   UNL A   1      64.033 -23.004  -3.935  0.00  0.00    -0.203 N 
ATOM      8  C   UNL A   1      65.194 -22.716  -3.265  0.00  0.00    +0.250 C 
ATOM      9  O   UNL A   1      66.366 -22.962  -3.503  0.00  0.00    -0.270 OA
ATOM     10  C   UNL A   1      64.844 -21.972  -2.051  0.00  0.00    +0.006 C 
ATOM     11  C   UNL A   1      63.525 -21.837  -2.026  0.00  0.00    +0.006 C 
ATOM     12  C   UNL A   1      62.980 -22.490  -3.223  0.00  0.00    +0.250 C 
ATOM     13  O   UNL A   1      61.775 -22.487  -3.404  0.00  0.00    -0.270 OA
ENDBRANCH   5   7
BRANCH   1  15
ATOM     14  O   UNL A   1      63.834 -28.112  -6.588  0.00  0.00    -0.241 OA
ATOM     15  C   UNL A   1      64.735 -27.214  -6.608  0.00  0.00    +0.387 C 
ATOM     16  O   UNL A   1      65.985 -27.419  -6.706  0.00  0.00    -0.241 OA
ENDBRANCH   1  15
TORSDOF 2
ENDMDL
MODEL 20
REMARK VINA RESULT:    -5.501     20.927     21.736
REMARK INTER + INTRA:          -6.476
REMARK INTER:                  -6.054
REMARK INTRA:                  -0.422
REMARK UNBOUND:                -0.332
REMARK  Name = cpd103.pdb
REMARK  2 active torsions:
REMARK  status: ('A' for Active; 'I' for Inactive)
REMARK    1  A    between atoms: C_2  and  C_4
REMARK    2  A    between atoms: C_8  and  N_9
REMARK                            x       y       z     vdW  Elec       q    Type
REMARK                         _______ _______ _______ _____ _____    ______ ____
ROOT
ATOM      1  C   UNL A   1      46.902 -21.774 -41.303  0.00  0.00    +0.065 A 
ATOM      2  C   UNL A   1      47.256 -20.468 -41.664  0.00  0.00    -0.048 A 
ATOM      3  C   UNL A   1      46.362 -19.422 -41.485  0.00  0.00    -0.059 A 
ATOM      4  C   UNL A   1      45.098 -19.665 -40.941  0.00  0.00    -0.040 A 
ATOM      5  C   UNL A   1      44.691 -20.958 -40.562  0.00  0.00    +0.045 A 
ATOM      6  C   UNL A   1      45.619 -21.998 -40.755  0.00  0.00    -0.026 A 
ENDROOT
BRANCH   5   7
ATOM      7  N   UNL A   1      43.393 -21.193 -40.006  0.00  0.00    -0.203 N 
ATOM      8  C   UNL A   1      43.049 -21.034 -38.688  0.00  0.00    +0.250 C 
ATOM      9  O   UNL A   1      43.683 -20.681 -37.706  0.00  0.00    -0.270 OA
ATOM     10  C   UNL A   1      41.630 -21.379 -38.547  0.00  0.00    +0.006 C 
ATOM     11  C   UNL A   1      41.177 -21.725 -39.745  0.00  0.00    +0.006 C 
ATOM     12  C   UNL A   1      42.288 -21.614 -40.699  0.00  0.00    +0.250 C 
ATOM     13  O   UNL A   1      42.093 -21.887 -41.870  0.00  0.00    -0.270 OA
ENDBRANCH   5   7
BRANCH   1  15
ATOM     14  O   UNL A   1      48.969 -22.863 -40.841  0.00  0.00    -0.241 OA
ATOM     15  C   UNL A   1      47.884 -22.915 -41.501  0.00  0.00    +0.387 C 
ATOM     16  O   UNL A   1      47.551 -23.837 -42.310  0.00  0.00    -0.241 OA
ENDBRANCH   1  15
TORSDOF 2
ENDMDL
