REMARK  Name = cpd103.pdb
REMARK  2 active torsions:
REMARK  status: ('A' for Active; 'I' for Inactive)
REMARK    1  A    between atoms: C_2  and  C_4
REMARK    2  A    between atoms: C_8  and  N_9
REMARK                            x       y       z     vdW  Elec       q    Type
REMARK                         _______ _______ _______ _____ _____    ______ ____
ROOT
ATOM      1  C   UNL A   1       1.305   1.046   0.000  0.00  0.00    +0.065 A 
ATOM      2  C   UNL A   1       2.505   0.324   0.000  0.00  0.00    -0.048 A 
ATOM      3  C   UNL A   1       2.491  -1.064   0.000  0.00  0.00    -0.059 A 
ATOM      4  C   UNL A   1       1.275  -1.753   0.000  0.00  0.00    -0.040 A 
ATOM      5  C   UNL A   1       0.041  -1.077   0.000  0.00  0.00    +0.045 A 
ATOM      6  C   UNL A   1       0.087   0.329   0.000  0.00  0.00    -0.026 A 
ENDROOT
BRANCH   5   7
ATOM      7  N   UNL A   1      -1.197  -1.795   0.000  0.00  0.00    -0.203 N 
ATOM      8  C   UNL A   1      -1.328  -3.160   0.000  0.00  0.00    +0.250 C 
ATOM      9  O   UNL A   1      -0.511  -4.067   0.000  0.00  0.00    -0.270 OA
ATOM     10  C   UNL A   1      -2.760  -3.477   0.000  0.00  0.00    +0.006 C 
ATOM     11  C   UNL A   1      -3.428  -2.331   0.000  0.00  0.00    +0.006 C 
ATOM     12  C   UNL A   1      -2.449  -1.236   0.000  0.00  0.00    +0.250 C 
ATOM     13  O   UNL A   1      -2.847  -0.085   0.000  0.00  0.00    -0.270 OA
ENDBRANCH   5   7
BRANCH   1  15
ATOM     14  O   UNL A   1       2.467   3.125   0.000  0.00  0.00    -0.241 OA
ATOM     15  C   UNL A   1       1.326   2.564   0.000  0.00  0.00    +0.387 C 
ATOM     16  O   UNL A   1       0.205   3.162   0.000  0.00  0.00    -0.241 OA
ENDBRANCH   1  15
TORSDOF 2
