REMARK  Name = cpd312.pdb
REMARK  5 active torsions:
REMARK  status: ('A' for Active; 'I' for Inactive)
REMARK    1  A    between atoms: C_1  and  O_2
REMARK    2  A    between atoms: O_2  and  C_3
REMARK    3  A    between atoms: C_12  and  O_13
REMARK    4  A    between atoms: C_20  and  C_22
REMARK    5  A    between atoms: C_22  and  N_23
REMARK                            x       y       z     vdW  Elec       q    Type
REMARK                         _______ _______ _______ _____ _____    ______ ____
ROOT
ATOM      1  C   UNL     1       2.632   2.588   0.580  0.00  0.00    +0.162 A 
ATOM      2  C   UNL     1       1.410   2.979   0.027  0.00  0.00    -0.016 A 
ATOM      3  C   UNL     1       0.656   2.086  -0.763  0.00  0.00    -0.053 A 
ATOM      4  C   UNL     1       1.129   0.800  -1.064  0.00  0.00    -0.022 A 
ATOM      5  C   UNL     1       2.394   0.463  -0.612  0.00  0.00    +0.016 A 
ATOM      6  C   UNL     1       3.084   1.317   0.260  0.00  0.00    +0.167 A 
ATOM      7  O   UNL     1       4.179   0.698   0.853  0.00  0.00    -0.484 OA
ATOM      8  C   UNL     1       4.423  -0.347  -0.093  0.00  0.00    +0.116 C 
ATOM      9  C   UNL     1       5.315  -1.489   0.371  0.00  0.00    +0.015 C 
ATOM     10  C   UNL     1       5.552  -2.441  -0.824  0.00  0.00    +0.077 C 
ATOM     11  C   UNL     1       4.529  -2.356  -1.938  0.00  0.00    -0.059 C 
ATOM     12  C   UNL     1       3.404  -1.612  -1.883  0.00  0.00    -0.071 C 
ATOM     13  C   UNL     1       3.059  -0.875  -0.615  0.00  0.00    +0.056 C 
ATOM     14  C   UNL     1       2.206  -1.773   0.313  0.00  0.00    -0.020 C 
ATOM     15  C   UNL     1       0.893  -2.289  -0.328  0.00  0.00    +0.016 C 
ATOM     16  N   UNL     1      -0.120  -1.278  -0.683  0.00  0.00    -0.296 N 
ATOM     17  C   UNL     1      -1.436  -1.256  -0.200  0.00  0.00    +0.230 C 
ATOM     18  O   UNL     1      -2.185  -0.305  -0.445  0.00  0.00    -0.274 OA
ATOM     19  C   UNL     1       0.239  -0.248  -1.668  0.00  0.00    +0.040 C 
ENDROOT
BRANCH   1  21
ATOM     20  C   UNL     1       3.005   4.667   1.662  0.00  0.00    +0.079 C 
ATOM     21  O   UNL     1       3.411   3.327   1.421  0.00  0.00    -0.491 OA
ENDBRANCH   1  21
BRANCH  10  22
ATOM     22  O   UNL     1       6.800  -2.119  -1.433  0.00  0.00    -0.388 OA
ATOM     23  H   UNL     1       6.762  -1.218  -1.792  0.00  0.00    +0.000 HD
ENDBRANCH  10  22
BRANCH  17  24
ATOM     24  C   UNL     1      -1.907  -2.474   0.627  0.00  0.00    +0.076 C 
BRANCH  24  25
ATOM     25  N   UNL     1      -3.385  -2.603   0.678  0.00  0.00    -0.294 N 
ATOM     26  C   UNL     1      -3.770  -3.601   1.686  0.00  0.00    -0.001 C 
ATOM     27  C   UNL     1      -5.290  -3.731   1.795  0.00  0.00    -0.040 C 
ATOM     28  C   UNL     1      -5.916  -4.061   0.446  0.00  0.00    -0.051 C 
ATOM     29  C   UNL     1      -5.457  -3.061  -0.608  0.00  0.00    -0.040 C 
ATOM     30  C   UNL     1      -3.932  -2.953  -0.645  0.00  0.00    -0.001 C 
ATOM     31  H   UNL     1      -3.779  -1.701   0.946  0.00  0.00    +0.000 HD
ENDBRANCH  24  25
ENDBRANCH  17  24
TORSDOF 4
