MODEL 1
REMARK VINA RESULT:    -8.263      0.000      0.000
REMARK INTER + INTRA:         -10.360
REMARK INTER:                  -9.953
REMARK INTRA:                  -0.407
REMARK UNBOUND:                -0.407
REMARK  Name = cpd312.pdb
REMARK  5 active torsions:
REMARK  status: ('A' for Active; 'I' for Inactive)
REMARK    1  A    between atoms: C_1  and  O_2
REMARK    2  A    between atoms: O_2  and  C_3
REMARK    3  A    between atoms: C_12  and  O_13
REMARK    4  A    between atoms: C_20  and  C_22
REMARK    5  A    between atoms: C_22  and  N_23
REMARK                            x       y       z     vdW  Elec       q    Type
REMARK                         _______ _______ _______ _____ _____    ______ ____
ROOT
ATOM      1  C   UNL     1      39.758 -36.728 -30.865  0.00  0.00    +0.162 A 
ATOM      2  C   UNL     1      40.286 -37.587 -29.898  0.00  0.00    -0.016 A 
ATOM      3  C   UNL     1      39.465 -38.130 -28.888  0.00  0.00    -0.053 A 
ATOM      4  C   UNL     1      38.108 -37.787 -28.787  0.00  0.00    -0.022 A 
ATOM      5  C   UNL     1      37.621 -36.843 -29.677  0.00  0.00    +0.016 A 
ATOM      6  C   UNL     1      38.418 -36.395 -30.739  0.00  0.00    +0.167 A 
ATOM      7  O   UNL     1      37.685 -35.703 -31.697  0.00  0.00    -0.484 OA
ATOM      8  C   UNL     1      36.560 -35.297 -30.912  0.00  0.00    +0.116 C 
ATOM      9  C   UNL     1      35.332 -34.826 -31.677  0.00  0.00    +0.015 C 
ATOM     10  C   UNL     1      34.285 -34.321 -30.658  0.00  0.00    +0.077 C 
ATOM     11  C   UNL     1      34.449 -34.840 -29.244  0.00  0.00    -0.059 C 
ATOM     12  C   UNL     1      35.349 -35.776 -28.876  0.00  0.00    -0.071 C 
ATOM     13  C   UNL     1      36.203 -36.441 -29.924  0.00  0.00    +0.056 C 
ATOM     14  C   UNL     1      35.496 -37.703 -30.474  0.00  0.00    -0.020 C 
ATOM     15  C   UNL     1      35.136 -38.754 -29.394  0.00  0.00    +0.016 C 
ATOM     16  N   UNL     1      36.258 -39.397 -28.686  0.00  0.00    -0.296 N 
ATOM     17  C   UNL     1      36.499 -40.777 -28.648  0.00  0.00    +0.230 C 
ATOM     18  O   UNL     1      37.531 -41.227 -28.140  0.00  0.00    -0.274 OA
ATOM     19  C   UNL     1      37.164 -38.547 -27.901  0.00  0.00    +0.040 C 
ENDROOT
BRANCH   1  21
ATOM     20  C   UNL     1      41.824 -36.453 -31.999  0.00  0.00    +0.079 C 
ATOM     21  O   UNL     1      40.427 -36.205 -31.932  0.00  0.00    -0.491 OA
ENDBRANCH   1  21
BRANCH  10  22
ATOM     22  O   UNL     1      34.387 -32.903 -30.553  0.00  0.00    -0.388 OA
ATOM     23  H   UNL     1      35.268 -32.619 -30.845  0.00  0.00    +0.000 HD
ENDBRANCH  10  22
BRANCH  17  24
ATOM     24  C   UNL     1      35.414 -41.702 -29.246  0.00  0.00    +0.076 C 
BRANCH  24  25
ATOM     25  N   UNL     1      34.358 -42.065 -28.268  0.00  0.00    -0.294 N 
ATOM     26  C   UNL     1      34.690 -43.342 -27.619  0.00  0.00    -0.001 C 
ATOM     27  C   UNL     1      33.643 -43.728 -26.573  0.00  0.00    -0.040 C 
ATOM     28  C   UNL     1      32.246 -43.780 -27.179  0.00  0.00    -0.051 C 
ATOM     29  C   UNL     1      31.938 -42.478 -27.908  0.00  0.00    -0.040 C 
ATOM     30  C   UNL     1      33.036 -42.131 -28.915  0.00  0.00    -0.001 C 
ATOM     31  H   UNL     1      34.316 -41.338 -27.553  0.00  0.00    +0.000 HD
ENDBRANCH  24  25
ENDBRANCH  17  24
TORSDOF 4
ENDMDL
MODEL 2
REMARK VINA RESULT:    -8.027      1.790      2.594
REMARK INTER + INTRA:         -10.077
REMARK INTER:                  -9.709
REMARK INTRA:                  -0.368
REMARK UNBOUND:                -0.407
REMARK  Name = cpd312.pdb
REMARK  5 active torsions:
REMARK  status: ('A' for Active; 'I' for Inactive)
REMARK    1  A    between atoms: C_1  and  O_2
REMARK    2  A    between atoms: O_2  and  C_3
REMARK    3  A    between atoms: C_12  and  O_13
REMARK    4  A    between atoms: C_20  and  C_22
REMARK    5  A    between atoms: C_22  and  N_23
REMARK                            x       y       z     vdW  Elec       q    Type
REMARK                         _______ _______ _______ _____ _____    ______ ____
ROOT
ATOM      1  C   UNL     1      38.474 -36.120 -31.131  0.00  0.00    +0.162 A 
ATOM      2  C   UNL     1      39.033 -36.983 -30.185  0.00  0.00    -0.016 A 
ATOM      3  C   UNL     1      38.274 -37.440 -29.088  0.00  0.00    -0.053 A 
ATOM      4  C   UNL     1      36.957 -37.005 -28.879  0.00  0.00    -0.022 A 
ATOM      5  C   UNL     1      36.451 -36.058 -29.754  0.00  0.00    +0.016 A 
ATOM      6  C   UNL     1      37.175 -35.695 -30.899  0.00  0.00    +0.167 A 
ATOM      7  O   UNL     1      36.403 -34.985 -31.811  0.00  0.00    -0.484 OA
ATOM      8  C   UNL     1      35.383 -34.482 -30.944  0.00  0.00    +0.116 C 
ATOM      9  C   UNL     1      34.122 -33.954 -31.613  0.00  0.00    +0.015 C 
ATOM     10  C   UNL     1      33.206 -33.351 -30.523  0.00  0.00    +0.077 C 
ATOM     11  C   UNL     1      33.465 -33.838 -29.112  0.00  0.00    -0.059 C 
ATOM     12  C   UNL     1      34.333 -34.821 -28.793  0.00  0.00    -0.071 C 
ATOM     13  C   UNL     1      35.046 -35.570 -29.889  0.00  0.00    +0.056 C 
ATOM     14  C   UNL     1      34.212 -36.798 -30.328  0.00  0.00    -0.020 C 
ATOM     15  C   UNL     1      33.887 -37.792 -29.185  0.00  0.00    +0.016 C 
ATOM     16  N   UNL     1      35.026 -38.486 -28.557  0.00  0.00    -0.296 N 
ATOM     17  C   UNL     1      35.181 -39.878 -28.492  0.00  0.00    +0.230 C 
ATOM     18  O   UNL     1      36.225 -40.379 -28.062  0.00  0.00    -0.274 OA
ATOM     19  C   UNL     1      36.052 -37.675 -27.886  0.00  0.00    +0.040 C 
ENDROOT
BRANCH   1  21
ATOM     20  C   UNL     1      40.425 -36.063 -32.481  0.00  0.00    +0.079 C 
ATOM     21  O   UNL     1      39.075 -35.673 -32.271  0.00  0.00    -0.491 OA
ENDBRANCH   1  21
BRANCH  10  22
ATOM     22  O   UNL     1      33.406 -31.940 -30.477  0.00  0.00    -0.388 OA
ATOM     23  H   UNL     1      32.670 -31.524 -30.001  0.00  0.00    +0.000 HD
ENDBRANCH  10  22
BRANCH  17  24
ATOM     24  C   UNL     1      33.990 -40.745 -28.958  0.00  0.00    +0.076 C 
BRANCH  24  25
ATOM     25  N   UNL     1      33.846 -40.786 -30.435  0.00  0.00    -0.294 N 
ATOM     26  C   UNL     1      32.860 -41.806 -30.818  0.00  0.00    -0.001 C 
ATOM     27  C   UNL     1      32.655 -41.847 -32.333  0.00  0.00    -0.040 C 
ATOM     28  C   UNL     1      33.972 -42.073 -33.064  0.00  0.00    -0.051 C 
ATOM     29  C   UNL     1      35.009 -41.053 -32.610  0.00  0.00    -0.040 C 
ATOM     30  C   UNL     1      35.144 -41.037 -31.087  0.00  0.00    -0.001 C 
ATOM     31  H   UNL     1      33.513 -39.875 -30.752  0.00  0.00    +0.000 HD
ENDBRANCH  24  25
ENDBRANCH  17  24
TORSDOF 4
ENDMDL
MODEL 3
REMARK VINA RESULT:    -7.393     20.263     24.720
REMARK INTER + INTRA:          -9.312
REMARK INTER:                  -8.766
REMARK INTRA:                  -0.546
REMARK UNBOUND:                -0.407
REMARK  Name = cpd312.pdb
REMARK  5 active torsions:
REMARK  status: ('A' for Active; 'I' for Inactive)
REMARK    1  A    between atoms: C_1  and  O_2
REMARK    2  A    between atoms: O_2  and  C_3
REMARK    3  A    between atoms: C_12  and  O_13
REMARK    4  A    between atoms: C_20  and  C_22
REMARK    5  A    between atoms: C_22  and  N_23
REMARK                            x       y       z     vdW  Elec       q    Type
REMARK                         _______ _______ _______ _____ _____    ______ ____
ROOT
ATOM      1  C   UNL     1      42.457 -20.854 -38.899  0.00  0.00    +0.162 A 
ATOM      2  C   UNL     1      42.631 -20.211 -37.671  0.00  0.00    -0.016 A 
ATOM      3  C   UNL     1      43.911 -19.797 -37.247  0.00  0.00    -0.053 A 
ATOM      4  C   UNL     1      45.055 -20.062 -38.014  0.00  0.00    -0.022 A 
ATOM      5  C   UNL     1      44.889 -20.804 -39.172  0.00  0.00    +0.016 A 
ATOM      6  C   UNL     1      43.603 -21.114 -39.635  0.00  0.00    +0.167 A 
ATOM      7  O   UNL     1      43.608 -21.581 -40.945  0.00  0.00    -0.484 OA
ATOM      8  C   UNL     1      44.959 -22.041 -41.045  0.00  0.00    +0.116 C 
ATOM      9  C   UNL     1      45.490 -22.291 -42.449  0.00  0.00    +0.015 C 
ATOM     10  C   UNL     1      46.909 -22.893 -42.335  0.00  0.00    +0.077 C 
ATOM     11  C   UNL     1      47.623 -22.637 -41.024  0.00  0.00    -0.059 C 
ATOM     12  C   UNL     1      47.150 -21.840 -40.043  0.00  0.00    -0.071 C 
ATOM     13  C   UNL     1      45.878 -21.063 -40.262  0.00  0.00    +0.056 C 
ATOM     14  C   UNL     1      46.193 -19.681 -40.884  0.00  0.00    -0.020 C 
ATOM     15  C   UNL     1      47.162 -18.810 -40.047  0.00  0.00    +0.016 C 
ATOM     16  N   UNL     1      46.692 -18.375 -38.719  0.00  0.00    -0.296 N 
ATOM     17  C   UNL     1      46.584 -17.040 -38.302  0.00  0.00    +0.230 C 
ATOM     18  O   UNL     1      46.062 -16.754 -37.220  0.00  0.00    -0.274 OA
ATOM     19  C   UNL     1      46.373 -19.405 -37.720  0.00  0.00    +0.040 C 
ENDROOT
BRANCH   1  21
ATOM     20  C   UNL     1      40.330 -21.861 -38.594  0.00  0.00    +0.079 C 
ATOM     21  O   UNL     1      41.269 -21.229 -39.453  0.00  0.00    -0.491 OA
ENDBRANCH   1  21
BRANCH  10  22
ATOM     22  O   UNL     1      46.821 -24.312 -42.446  0.00  0.00    -0.388 OA
ATOM     23  H   UNL     1      46.171 -24.543 -43.129  0.00  0.00    +0.000 HD
ENDBRANCH  10  22
BRANCH  17  24
ATOM     24  C   UNL     1      47.161 -15.957 -39.242  0.00  0.00    +0.076 C 
BRANCH  24  25
ATOM     25  N   UNL     1      46.117 -15.074 -39.818  0.00  0.00    -0.294 N 
ATOM     26  C   UNL     1      45.424 -15.761 -40.917  0.00  0.00    -0.001 C 
ATOM     27  C   UNL     1      44.312 -14.895 -41.509  0.00  0.00    -0.040 C 
ATOM     28  C   UNL     1      44.847 -13.546 -41.973  0.00  0.00    -0.051 C 
ATOM     29  C   UNL     1      45.622 -12.871 -40.848  0.00  0.00    -0.040 C 
ATOM     30  C   UNL     1      46.696 -13.798 -40.277  0.00  0.00    -0.001 C 
ATOM     31  H   UNL     1      45.437 -14.859 -39.089  0.00  0.00    +0.000 HD
ENDBRANCH  24  25
ENDBRANCH  17  24
TORSDOF 4
ENDMDL
MODEL 4
REMARK VINA RESULT:    -7.243     20.578     25.381
REMARK INTER + INTRA:          -9.131
REMARK INTER:                  -8.742
REMARK INTRA:                  -0.389
REMARK UNBOUND:                -0.407
REMARK  Name = cpd312.pdb
REMARK  5 active torsions:
REMARK  status: ('A' for Active; 'I' for Inactive)
REMARK    1  A    between atoms: C_1  and  O_2
REMARK    2  A    between atoms: O_2  and  C_3
REMARK    3  A    between atoms: C_12  and  O_13
REMARK    4  A    between atoms: C_20  and  C_22
REMARK    5  A    between atoms: C_22  and  N_23
REMARK                            x       y       z     vdW  Elec       q    Type
REMARK                         _______ _______ _______ _____ _____    ______ ____
ROOT
ATOM      1  C   UNL     1      43.504 -20.777 -37.400  0.00  0.00    +0.162 A 
ATOM      2  C   UNL     1      44.023 -20.029 -36.341  0.00  0.00    -0.016 A 
ATOM      3  C   UNL     1      45.302 -19.440 -36.431  0.00  0.00    -0.053 A 
ATOM      4  C   UNL     1      46.115 -19.630 -37.558  0.00  0.00    -0.022 A 
ATOM      5  C   UNL     1      45.643 -20.472 -38.552  0.00  0.00    +0.016 A 
ATOM      6  C   UNL     1      44.330 -20.961 -38.498  0.00  0.00    +0.167 A 
ATOM      7  O   UNL     1      43.923 -21.521 -39.704  0.00  0.00    -0.484 OA
ATOM      8  C   UNL     1      45.195 -21.830 -40.282  0.00  0.00    +0.116 C 
ATOM      9  C   UNL     1      45.209 -22.123 -41.775  0.00  0.00    +0.015 C 
ATOM     10  C   UNL     1      46.640 -22.550 -42.176  0.00  0.00    +0.077 C 
ATOM     11  C   UNL     1      47.739 -22.116 -41.228  0.00  0.00    -0.059 C 
ATOM     12  C   UNL     1      47.551 -21.306 -40.164  0.00  0.00    -0.071 C 
ATOM     13  C   UNL     1      46.194 -20.698 -39.921  0.00  0.00    +0.056 C 
ATOM     14  C   UNL     1      46.075 -19.340 -40.655  0.00  0.00    -0.020 C 
ATOM     15  C   UNL     1      47.156 -18.303 -40.259  0.00  0.00    +0.016 C 
ATOM     16  N   UNL     1      47.145 -17.826 -38.864  0.00  0.00    -0.296 N 
ATOM     17  C   UNL     1      47.018 -16.485 -38.476  0.00  0.00    +0.230 C 
ATOM     18  O   UNL     1      46.890 -16.179 -37.286  0.00  0.00    -0.274 OA
ATOM     19  C   UNL     1      47.350 -18.808 -37.790  0.00  0.00    +0.040 C 
ENDROOT
BRANCH   1  21
ATOM     20  C   UNL     1      41.322 -20.917 -36.478  0.00  0.00    +0.079 C 
ATOM     21  O   UNL     1      42.257 -21.326 -37.466  0.00  0.00    -0.491 OA
ENDBRANCH   1  21
BRANCH  10  22
ATOM     22  O   UNL     1      46.709 -23.974 -42.206  0.00  0.00    -0.388 OA
ATOM     23  H   UNL     1      45.837 -24.344 -41.992  0.00  0.00    +0.000 HD
ENDBRANCH  10  22
BRANCH  17  24
ATOM     24  C   UNL     1      47.066 -15.417 -39.592  0.00  0.00    +0.076 C 
BRANCH  24  25
ATOM     25  N   UNL     1      48.435 -14.900 -39.841  0.00  0.00    -0.294 N 
ATOM     26  C   UNL     1      48.699 -13.736 -38.983  0.00  0.00    -0.001 C 
ATOM     27  C   UNL     1      50.117 -13.201 -39.183  0.00  0.00    -0.040 C 
ATOM     28  C   UNL     1      50.380 -12.861 -40.645  0.00  0.00    -0.051 C 
ATOM     29  C   UNL     1      50.038 -14.050 -41.533  0.00  0.00    -0.040 C 
ATOM     30  C   UNL     1      48.622 -14.558 -41.263  0.00  0.00    -0.001 C 
ATOM     31  H   UNL     1      49.104 -15.634 -39.609  0.00  0.00    +0.000 HD
ENDBRANCH  24  25
ENDBRANCH  17  24
TORSDOF 4
ENDMDL
MODEL 5
REMARK VINA RESULT:    -6.958     18.929     22.711
REMARK INTER + INTRA:          -8.789
REMARK INTER:                  -8.377
REMARK INTRA:                  -0.412
REMARK UNBOUND:                -0.407
REMARK  Name = cpd312.pdb
REMARK  5 active torsions:
REMARK  status: ('A' for Active; 'I' for Inactive)
REMARK    1  A    between atoms: C_1  and  O_2
REMARK    2  A    between atoms: O_2  and  C_3
REMARK    3  A    between atoms: C_12  and  O_13
REMARK    4  A    between atoms: C_20  and  C_22
REMARK    5  A    between atoms: C_22  and  N_23
REMARK                            x       y       z     vdW  Elec       q    Type
REMARK                         _______ _______ _______ _____ _____    ______ ____
ROOT
ATOM      1  C   UNL     1      45.808 -16.571 -40.654  0.00  0.00    +0.162 A 
ATOM      2  C   UNL     1      44.491 -16.131 -40.504  0.00  0.00    -0.016 A 
ATOM      3  C   UNL     1      43.432 -17.053 -40.365  0.00  0.00    -0.053 A 
ATOM      4  C   UNL     1      43.657 -18.436 -40.427  0.00  0.00    -0.022 A 
ATOM      5  C   UNL     1      44.947 -18.862 -40.695  0.00  0.00    +0.016 A 
ATOM      6  C   UNL     1      46.004 -17.942 -40.723  0.00  0.00    +0.167 A 
ATOM      7  O   UNL     1      47.249 -18.562 -40.693  0.00  0.00    -0.484 OA
ATOM      8  C   UNL     1      46.898 -19.858 -41.189  0.00  0.00    +0.116 C 
ATOM      9  C   UNL     1      47.914 -20.968 -40.965  0.00  0.00    +0.015 C 
ATOM     10  C   UNL     1      47.407 -22.245 -41.675  0.00  0.00    +0.077 C 
ATOM     11  C   UNL     1      45.919 -22.288 -41.955  0.00  0.00    -0.059 C 
ATOM     12  C   UNL     1      45.036 -21.362 -41.524  0.00  0.00    -0.071 C 
ATOM     13  C   UNL     1      45.505 -20.247 -40.625  0.00  0.00    +0.056 C 
ATOM     14  C   UNL     1      45.396 -20.672 -39.141  0.00  0.00    -0.020 C 
ATOM     15  C   UNL     1      43.972 -21.093 -38.700  0.00  0.00    +0.016 C 
ATOM     16  N   UNL     1      42.928 -20.052 -38.729  0.00  0.00    -0.296 N 
ATOM     17  C   UNL     1      42.164 -19.650 -37.625  0.00  0.00    +0.230 C 
ATOM     18  O   UNL     1      41.398 -18.684 -37.702  0.00  0.00    -0.274 OA
ATOM     19  C   UNL     1      42.604 -19.427 -40.019  0.00  0.00    +0.040 C 
ENDROOT
BRANCH   1  21
ATOM     20  C   UNL     1      46.816 -14.583 -41.466  0.00  0.00    +0.079 C 
ATOM     21  O   UNL     1      46.921 -15.784 -40.716  0.00  0.00    -0.491 OA
ENDBRANCH   1  21
BRANCH  10  22
ATOM     22  O   UNL     1      48.034 -22.346 -42.951  0.00  0.00    -0.388 OA
ATOM     23  H   UNL     1      47.852 -21.543 -43.465  0.00  0.00    +0.000 HD
ENDBRANCH  10  22
BRANCH  17  24
ATOM     24  C   UNL     1      42.307 -20.476 -36.326  0.00  0.00    +0.076 C 
BRANCH  24  25
ATOM     25  N   UNL     1      41.031 -21.095 -35.889  0.00  0.00    -0.294 N 
ATOM     26  C   UNL     1      41.041 -21.301 -34.434  0.00  0.00    -0.001 C 
ATOM     27  C   UNL     1      39.723 -21.901 -33.942  0.00  0.00    -0.040 C 
ATOM     28  C   UNL     1      39.402 -23.202 -34.667  0.00  0.00    -0.051 C 
ATOM     29  C   UNL     1      39.461 -22.995 -36.175  0.00  0.00    -0.040 C 
ATOM     30  C   UNL     1      40.787 -22.364 -36.599  0.00  0.00    -0.001 C 
ATOM     31  H   UNL     1      40.267 -20.460 -36.123  0.00  0.00    +0.000 HD
ENDBRANCH  24  25
ENDBRANCH  17  24
TORSDOF 4
ENDMDL
MODEL 6
REMARK VINA RESULT:    -6.913      3.727      7.051
REMARK INTER + INTRA:          -8.734
REMARK INTER:                  -8.711
REMARK INTRA:                  -0.023
REMARK UNBOUND:                -0.407
REMARK  Name = cpd312.pdb
REMARK  5 active torsions:
REMARK  status: ('A' for Active; 'I' for Inactive)
REMARK    1  A    between atoms: C_1  and  O_2
REMARK    2  A    between atoms: O_2  and  C_3
REMARK    3  A    between atoms: C_12  and  O_13
REMARK    4  A    between atoms: C_20  and  C_22
REMARK    5  A    between atoms: C_22  and  N_23
REMARK                            x       y       z     vdW  Elec       q    Type
REMARK                         _______ _______ _______ _____ _____    ______ ____
ROOT
ATOM      1  C   UNL     1      30.416 -36.203 -32.098  0.00  0.00    +0.162 A 
ATOM      2  C   UNL     1      31.197 -37.133 -32.789  0.00  0.00    -0.016 A 
ATOM      3  C   UNL     1      32.600 -36.997 -32.848  0.00  0.00    -0.053 A 
ATOM      4  C   UNL     1      33.252 -35.901 -32.263  0.00  0.00    -0.022 A 
ATOM      5  C   UNL     1      32.462 -34.923 -31.683  0.00  0.00    +0.016 A 
ATOM      6  C   UNL     1      31.082 -35.123 -31.538  0.00  0.00    +0.167 A 
ATOM      7  O   UNL     1      30.500 -34.202 -30.673  0.00  0.00    -0.484 OA
ATOM      8  C   UNL     1      31.462 -33.145 -30.743  0.00  0.00    +0.116 C 
ATOM      9  C   UNL     1      31.392 -32.089 -29.651  0.00  0.00    +0.015 C 
ATOM     10  C   UNL     1      32.423 -30.983 -29.973  0.00  0.00    +0.077 C 
ATOM     11  C   UNL     1      33.547 -31.390 -30.904  0.00  0.00    -0.059 C 
ATOM     12  C   UNL     1      33.750 -32.650 -31.346  0.00  0.00    -0.071 C 
ATOM     13  C   UNL     1      32.882 -33.769 -30.832  0.00  0.00    +0.056 C 
ATOM     14  C   UNL     1      33.502 -34.388 -29.557  0.00  0.00    -0.020 C 
ATOM     15  C   UNL     1      34.942 -34.930 -29.745  0.00  0.00    +0.016 C 
ATOM     16  N   UNL     1      35.113 -36.064 -30.672  0.00  0.00    -0.296 N 
ATOM     17  C   UNL     1      35.669 -37.304 -30.328  0.00  0.00    +0.230 C 
ATOM     18  O   UNL     1      35.661 -38.245 -31.128  0.00  0.00    -0.274 OA
ATOM     19  C   UNL     1      34.742 -35.874 -32.081  0.00  0.00    +0.040 C 
ENDROOT
BRANCH   1  21
ATOM     20  C   UNL     1      28.593 -37.279 -31.027  0.00  0.00    +0.079 C 
ATOM     21  O   UNL     1      29.068 -36.266 -31.902  0.00  0.00    -0.491 OA
ENDBRANCH   1  21
BRANCH  10  22
ATOM     22  O   UNL     1      31.759 -29.907 -30.633  0.00  0.00    -0.388 OA
ATOM     23  H   UNL     1      31.316 -30.240 -31.430  0.00  0.00    +0.000 HD
ENDBRANCH  10  22
BRANCH  17  24
ATOM     24  C   UNL     1      36.302 -37.432 -28.924  0.00  0.00    +0.076 C 
BRANCH  24  25
ATOM     25  N   UNL     1      37.772 -37.223 -28.930  0.00  0.00    -0.294 N 
ATOM     26  C   UNL     1      38.252 -37.055 -30.310  0.00  0.00    -0.001 C 
ATOM     27  C   UNL     1      39.759 -36.797 -30.352  0.00  0.00    -0.040 C 
ATOM     28  C   UNL     1      40.531 -37.903 -29.645  0.00  0.00    -0.051 C 
ATOM     29  C   UNL     1      39.981 -38.116 -28.240  0.00  0.00    -0.040 C 
ATOM     30  C   UNL     1      38.468 -38.337 -28.263  0.00  0.00    -0.001 C 
ATOM     31  H   UNL     1      37.979 -36.372 -28.408  0.00  0.00    +0.000 HD
ENDBRANCH  24  25
ENDBRANCH  17  24
TORSDOF 4
ENDMDL
MODEL 7
REMARK VINA RESULT:    -6.878     21.640     25.097
REMARK INTER + INTRA:          -8.692
REMARK INTER:                  -8.135
REMARK INTRA:                  -0.558
REMARK UNBOUND:                -0.407
REMARK  Name = cpd312.pdb
REMARK  5 active torsions:
REMARK  status: ('A' for Active; 'I' for Inactive)
REMARK    1  A    between atoms: C_1  and  O_2
REMARK    2  A    between atoms: O_2  and  C_3
REMARK    3  A    between atoms: C_12  and  O_13
REMARK    4  A    between atoms: C_20  and  C_22
REMARK    5  A    between atoms: C_22  and  N_23
REMARK                            x       y       z     vdW  Elec       q    Type
REMARK                         _______ _______ _______ _____ _____    ______ ____
ROOT
ATOM      1  C   UNL     1      46.132 -21.662 -40.498  0.00  0.00    +0.162 A 
ATOM      2  C   UNL     1      45.202 -21.340 -41.490  0.00  0.00    -0.016 A 
ATOM      3  C   UNL     1      44.183 -20.395 -41.247  0.00  0.00    -0.053 A 
ATOM      4  C   UNL     1      44.036 -19.789 -39.990  0.00  0.00    -0.022 A 
ATOM      5  C   UNL     1      44.887 -20.202 -38.978  0.00  0.00    +0.016 A 
ATOM      6  C   UNL     1      45.960 -21.059 -39.262  0.00  0.00    +0.167 A 
ATOM      7  O   UNL     1      46.879 -21.121 -38.220  0.00  0.00    -0.484 OA
ATOM      8  C   UNL     1      46.052 -20.711 -37.127  0.00  0.00    +0.116 C 
ATOM      9  C   UNL     1      46.770 -20.286 -35.855  0.00  0.00    +0.015 C 
ATOM     10  C   UNL     1      45.709 -20.001 -34.767  0.00  0.00    +0.077 C 
ATOM     11  C   UNL     1      44.314 -19.705 -35.278  0.00  0.00    -0.059 C 
ATOM     12  C   UNL     1      43.996 -19.563 -36.583  0.00  0.00    -0.071 C 
ATOM     13  C   UNL     1      45.084 -19.602 -37.624  0.00  0.00    +0.056 C 
ATOM     14  C   UNL     1      45.645 -18.181 -37.868  0.00  0.00    -0.020 C 
ATOM     15  C   UNL     1      44.583 -17.142 -38.307  0.00  0.00    +0.016 C 
ATOM     16  N   UNL     1      43.924 -17.367 -39.607  0.00  0.00    -0.296 N 
ATOM     17  C   UNL     1      43.928 -16.462 -40.677  0.00  0.00    +0.230 C 
ATOM     18  O   UNL     1      43.461 -16.778 -41.776  0.00  0.00    -0.274 OA
ATOM     19  C   UNL     1      43.143 -18.599 -39.787  0.00  0.00    +0.040 C 
ENDROOT
BRANCH   1  21
ATOM     20  C   UNL     1      48.154 -22.158 -41.636  0.00  0.00    +0.079 C 
ATOM     21  O   UNL     1      47.203 -22.494 -40.636  0.00  0.00    -0.491 OA
ENDBRANCH   1  21
BRANCH  10  22
ATOM     22  O   UNL     1      45.570 -21.154 -33.940  0.00  0.00    -0.388 OA
ATOM     23  H   UNL     1      46.450 -21.482 -33.693  0.00  0.00    +0.000 HD
ENDBRANCH  10  22
BRANCH  17  24
ATOM     24  C   UNL     1      44.518 -15.058 -40.414  0.00  0.00    +0.076 C 
BRANCH  24  25
ATOM     25  N   UNL     1      45.704 -14.761 -41.257  0.00  0.00    -0.294 N 
ATOM     26  C   UNL     1      46.936 -14.947 -40.478  0.00  0.00    -0.001 C 
ATOM     27  C   UNL     1      48.182 -14.689 -41.327  0.00  0.00    -0.040 C 
ATOM     28  C   UNL     1      48.147 -13.301 -41.954  0.00  0.00    -0.051 C 
ATOM     29  C   UNL     1      46.836 -13.092 -42.702  0.00  0.00    -0.040 C 
ATOM     30  C   UNL     1      45.632 -13.397 -41.810  0.00  0.00    -0.001 C 
ATOM     31  H   UNL     1      45.714 -15.412 -42.042  0.00  0.00    +0.000 HD
ENDBRANCH  24  25
ENDBRANCH  17  24
TORSDOF 4
ENDMDL
MODEL 8
REMARK VINA RESULT:    -6.849     16.571     20.986
REMARK INTER + INTRA:          -8.657
REMARK INTER:                  -8.228
REMARK INTRA:                  -0.428
REMARK UNBOUND:                -0.407
REMARK  Name = cpd312.pdb
REMARK  5 active torsions:
REMARK  status: ('A' for Active; 'I' for Inactive)
REMARK    1  A    between atoms: C_1  and  O_2
REMARK    2  A    between atoms: O_2  and  C_3
REMARK    3  A    between atoms: C_12  and  O_13
REMARK    4  A    between atoms: C_20  and  C_22
REMARK    5  A    between atoms: C_22  and  N_23
REMARK                            x       y       z     vdW  Elec       q    Type
REMARK                         _______ _______ _______ _____ _____    ______ ____
ROOT
ATOM      1  C   UNL     1      37.165 -18.416 -33.247  0.00  0.00    +0.162 A 
ATOM      2  C   UNL     1      37.845 -17.343 -32.667  0.00  0.00    -0.016 A 
ATOM      3  C   UNL     1      39.197 -17.467 -32.283  0.00  0.00    -0.053 A 
ATOM      4  C   UNL     1      39.885 -18.682 -32.418  0.00  0.00    -0.022 A 
ATOM      5  C   UNL     1      39.170 -19.773 -32.882  0.00  0.00    +0.016 A 
ATOM      6  C   UNL     1      37.862 -19.609 -33.361  0.00  0.00    +0.167 A 
ATOM      7  O   UNL     1      37.412 -20.720 -34.065  0.00  0.00    -0.484 OA
ATOM      8  C   UNL     1      38.273 -21.728 -33.527  0.00  0.00    +0.116 C 
ATOM      9  C   UNL     1      38.360 -23.033 -34.304  0.00  0.00    +0.015 C 
ATOM     10  C   UNL     1      39.235 -24.023 -33.501  0.00  0.00    +0.077 C 
ATOM     11  C   UNL     1      40.171 -23.393 -32.490  0.00  0.00    -0.059 C 
ATOM     12  C   UNL     1      40.358 -22.064 -32.351  0.00  0.00    -0.071 C 
ATOM     13  C   UNL     1      39.681 -21.112 -33.304  0.00  0.00    +0.056 C 
ATOM     14  C   UNL     1      40.582 -20.852 -34.535  0.00  0.00    -0.020 C 
ATOM     15  C   UNL     1      41.985 -20.290 -34.192  0.00  0.00    +0.016 C 
ATOM     16  N   UNL     1      42.035 -18.954 -33.570  0.00  0.00    -0.296 N 
ATOM     17  C   UNL     1      42.723 -17.850 -34.094  0.00  0.00    +0.230 C 
ATOM     18  O   UNL     1      42.613 -16.732 -33.579  0.00  0.00    -0.274 OA
ATOM     19  C   UNL     1      41.377 -18.765 -32.270  0.00  0.00    +0.040 C 
ENDROOT
BRANCH   1  21
ATOM     20  C   UNL     1      34.851 -18.719 -32.818  0.00  0.00    +0.079 C 
ATOM     21  O   UNL     1      35.890 -18.397 -33.732  0.00  0.00    -0.491 OA
ENDBRANCH   1  21
BRANCH  10  22
ATOM     22  O   UNL     1      38.388 -24.884 -32.745  0.00  0.00    -0.388 OA
ATOM     23  H   UNL     1      37.872 -25.443 -33.349  0.00  0.00    +0.000 HD
ENDBRANCH  10  22
BRANCH  17  24
ATOM     24  C   UNL     1      43.633 -18.098 -35.318  0.00  0.00    +0.076 C 
BRANCH  24  25
ATOM     25  N   UNL     1      44.990 -18.572 -34.945  0.00  0.00    -0.294 N 
ATOM     26  C   UNL     1      45.960 -17.476 -35.074  0.00  0.00    -0.001 C 
ATOM     27  C   UNL     1      47.364 -17.918 -34.658  0.00  0.00    -0.040 C 
ATOM     28  C   UNL     1      47.820 -19.135 -35.452  0.00  0.00    -0.051 C 
ATOM     29  C   UNL     1      46.776 -20.241 -35.369  0.00  0.00    -0.040 C 
ATOM     30  C   UNL     1      45.391 -19.729 -35.766  0.00  0.00    -0.001 C 
ATOM     31  H   UNL     1      44.969 -18.877 -33.972  0.00  0.00    +0.000 HD
ENDBRANCH  24  25
ENDBRANCH  17  24
TORSDOF 4
ENDMDL
MODEL 9
REMARK VINA RESULT:    -6.752     20.311     23.475
REMARK INTER + INTRA:          -8.541
REMARK INTER:                  -7.990
REMARK INTRA:                  -0.551
REMARK UNBOUND:                -0.407
REMARK  Name = cpd312.pdb
REMARK  5 active torsions:
REMARK  status: ('A' for Active; 'I' for Inactive)
REMARK    1  A    between atoms: C_1  and  O_2
REMARK    2  A    between atoms: O_2  and  C_3
REMARK    3  A    between atoms: C_12  and  O_13
REMARK    4  A    between atoms: C_20  and  C_22
REMARK    5  A    between atoms: C_22  and  N_23
REMARK                            x       y       z     vdW  Elec       q    Type
REMARK                         _______ _______ _______ _____ _____    ______ ____
ROOT
ATOM      1  C   UNL     1      45.314 -20.781 -40.617  0.00  0.00    +0.162 A 
ATOM      2  C   UNL     1      46.023 -21.634 -39.768  0.00  0.00    -0.016 A 
ATOM      3  C   UNL     1      46.772 -21.120 -38.688  0.00  0.00    -0.053 A 
ATOM      4  C   UNL     1      46.874 -19.739 -38.463  0.00  0.00    -0.022 A 
ATOM      5  C   UNL     1      46.267 -18.896 -39.378  0.00  0.00    +0.016 A 
ATOM      6  C   UNL     1      45.438 -19.420 -40.381  0.00  0.00    +0.167 A 
ATOM      7  O   UNL     1      44.675 -18.439 -41.005  0.00  0.00    -0.484 OA
ATOM      8  C   UNL     1      45.464 -17.282 -40.717  0.00  0.00    +0.116 C 
ATOM      9  C   UNL     1      44.787 -15.933 -40.907  0.00  0.00    +0.015 C 
ATOM     10  C   UNL     1      45.834 -14.821 -40.666  0.00  0.00    +0.077 C 
ATOM     11  C   UNL     1      47.043 -15.231 -39.851  0.00  0.00    -0.059 C 
ATOM     12  C   UNL     1      47.184 -16.430 -39.247  0.00  0.00    -0.071 C 
ATOM     13  C   UNL     1      46.049 -17.421 -39.285  0.00  0.00    +0.056 C 
ATOM     14  C   UNL     1      45.109 -17.207 -38.075  0.00  0.00    -0.020 C 
ATOM     15  C   UNL     1      45.808 -17.314 -36.696  0.00  0.00    +0.016 C 
ATOM     16  N   UNL     1      46.374 -18.626 -36.333  0.00  0.00    -0.296 N 
ATOM     17  C   UNL     1      46.025 -19.363 -35.193  0.00  0.00    +0.230 C 
ATOM     18  O   UNL     1      46.450 -20.511 -35.026  0.00  0.00    -0.274 OA
ATOM     19  C   UNL     1      47.434 -19.187 -37.183  0.00  0.00    +0.040 C 
ENDROOT
BRANCH   1  21
ATOM     20  C   UNL     1      45.044 -22.031 -42.615  0.00  0.00    +0.079 C 
ATOM     21  O   UNL     1      44.494 -21.158 -41.639  0.00  0.00    -0.491 OA
ENDBRANCH   1  21
BRANCH  10  22
ATOM     22  O   UNL     1      46.354 -14.394 -41.923  0.00  0.00    -0.388 OA
ATOM     23  H   UNL     1      47.265 -14.080 -41.806  0.00  0.00    +0.000 HD
ENDBRANCH  10  22
BRANCH  17  24
ATOM     24  C   UNL     1      45.111 -18.672 -34.156  0.00  0.00    +0.076 C 
BRANCH  24  25
ATOM     25  N   UNL     1      43.845 -19.411 -33.917  0.00  0.00    -0.294 N 
ATOM     26  C   UNL     1      43.098 -19.552 -35.175  0.00  0.00    -0.001 C 
ATOM     27  C   UNL     1      41.806 -20.345 -34.974  0.00  0.00    -0.040 C 
ATOM     28  C   UNL     1      40.931 -19.714 -33.898  0.00  0.00    -0.051 C 
ATOM     29  C   UNL     1      41.733 -19.509 -32.619  0.00  0.00    -0.040 C 
ATOM     30  C   UNL     1      43.026 -18.740 -32.891  0.00  0.00    -0.001 C 
ATOM     31  H   UNL     1      44.075 -20.341 -33.568  0.00  0.00    +0.000 HD
ENDBRANCH  24  25
ENDBRANCH  17  24
TORSDOF 4
ENDMDL
MODEL 10
REMARK VINA RESULT:    -6.741      3.679      4.962
REMARK INTER + INTRA:          -8.527
REMARK INTER:                  -8.076
REMARK INTRA:                  -0.451
REMARK UNBOUND:                -0.407
REMARK  Name = cpd312.pdb
REMARK  5 active torsions:
REMARK  status: ('A' for Active; 'I' for Inactive)
REMARK    1  A    between atoms: C_1  and  O_2
REMARK    2  A    between atoms: O_2  and  C_3
REMARK    3  A    between atoms: C_12  and  O_13
REMARK    4  A    between atoms: C_20  and  C_22
REMARK    5  A    between atoms: C_22  and  N_23
REMARK                            x       y       z     vdW  Elec       q    Type
REMARK                         _______ _______ _______ _____ _____    ______ ____
ROOT
ATOM      1  C   UNL     1      34.161 -39.701 -32.440  0.00  0.00    +0.162 A 
ATOM      2  C   UNL     1      34.870 -40.659 -31.710  0.00  0.00    -0.016 A 
ATOM      3  C   UNL     1      35.450 -40.335 -30.466  0.00  0.00    -0.053 A 
ATOM      4  C   UNL     1      35.382 -39.034 -29.945  0.00  0.00    -0.022 A 
ATOM      5  C   UNL     1      34.781 -38.063 -30.730  0.00  0.00    +0.016 A 
ATOM      6  C   UNL     1      34.116 -38.421 -31.911  0.00  0.00    +0.167 A 
ATOM      7  O   UNL     1      33.318 -37.393 -32.402  0.00  0.00    -0.484 OA
ATOM      8  C   UNL     1      33.948 -36.266 -31.787  0.00  0.00    +0.116 C 
ATOM      9  C   UNL     1      33.153 -34.969 -31.769  0.00  0.00    +0.015 C 
ATOM     10  C   UNL     1      34.047 -33.855 -31.178  0.00  0.00    +0.077 C 
ATOM     11  C   UNL     1      35.207 -34.332 -30.329  0.00  0.00    -0.059 C 
ATOM     12  C   UNL     1      35.414 -35.619 -29.977  0.00  0.00    -0.071 C 
ATOM     13  C   UNL     1      34.401 -36.667 -30.357  0.00  0.00    +0.056 C 
ATOM     14  C   UNL     1      33.328 -36.804 -29.249  0.00  0.00    -0.020 C 
ATOM     15  C   UNL     1      33.896 -37.152 -27.850  0.00  0.00    +0.016 C 
ATOM     16  N   UNL     1      34.560 -38.461 -27.705  0.00  0.00    -0.296 N 
ATOM     17  C   UNL     1      34.181 -39.457 -26.794  0.00  0.00    +0.230 C 
ATOM     18  O   UNL     1      34.707 -40.574 -26.822  0.00  0.00    -0.274 OA
ATOM     19  C   UNL     1      35.751 -38.732 -28.521  0.00  0.00    +0.040 C 
ENDROOT
BRANCH   1  21
ATOM     20  C   UNL     1      32.286 -40.660 -33.534  0.00  0.00    +0.079 C 
ATOM     21  O   UNL     1      33.490 -39.911 -33.609  0.00  0.00    -0.491 OA
ENDBRANCH   1  21
BRANCH  10  22
ATOM     22  O   UNL     1      34.640 -33.120 -32.247  0.00  0.00    -0.388 OA
ATOM     23  H   UNL     1      34.248 -32.233 -32.286  0.00  0.00    +0.000 HD
ENDBRANCH  10  22
BRANCH  17  24
ATOM     24  C   UNL     1      33.100 -39.089 -25.752  0.00  0.00    +0.076 C 
BRANCH  24  25
ATOM     25  N   UNL     1      33.669 -38.750 -24.423  0.00  0.00    -0.294 N 
ATOM     26  C   UNL     1      33.173 -39.690 -23.407  0.00  0.00    -0.001 C 
ATOM     27  C   UNL     1      33.771 -39.395 -22.031  0.00  0.00    -0.040 C 
ATOM     28  C   UNL     1      33.505 -37.956 -21.607  0.00  0.00    -0.051 C 
ATOM     29  C   UNL     1      33.959 -36.992 -22.696  0.00  0.00    -0.040 C 
ATOM     30  C   UNL     1      33.354 -37.359 -24.052  0.00  0.00    -0.001 C 
ATOM     31  H   UNL     1      34.684 -38.833 -24.475  0.00  0.00    +0.000 HD
ENDBRANCH  24  25
ENDBRANCH  17  24
TORSDOF 4
ENDMDL
MODEL 11
REMARK VINA RESULT:    -6.657     18.413     21.889
REMARK INTER + INTRA:          -8.426
REMARK INTER:                  -7.970
REMARK INTRA:                  -0.456
REMARK UNBOUND:                -0.407
REMARK  Name = cpd312.pdb
REMARK  5 active torsions:
REMARK  status: ('A' for Active; 'I' for Inactive)
REMARK    1  A    between atoms: C_1  and  O_2
REMARK    2  A    between atoms: O_2  and  C_3
REMARK    3  A    between atoms: C_12  and  O_13
REMARK    4  A    between atoms: C_20  and  C_22
REMARK    5  A    between atoms: C_22  and  N_23
REMARK                            x       y       z     vdW  Elec       q    Type
REMARK                         _______ _______ _______ _____ _____    ______ ____
ROOT
ATOM      1  C   UNL     1      46.868 -18.588 -36.931  0.00  0.00    +0.162 A 
ATOM      2  C   UNL     1      46.140 -17.493 -36.458  0.00  0.00    -0.016 A 
ATOM      3  C   UNL     1      44.848 -17.217 -36.953  0.00  0.00    -0.053 A 
ATOM      4  C   UNL     1      44.274 -17.994 -37.970  0.00  0.00    -0.022 A 
ATOM      5  C   UNL     1      45.049 -19.003 -38.517  0.00  0.00    +0.016 A 
ATOM      6  C   UNL     1      46.285 -19.335 -37.944  0.00  0.00    +0.167 A 
ATOM      7  O   UNL     1      46.778 -20.549 -38.410  0.00  0.00    -0.484 OA
ATOM      8  C   UNL     1      46.074 -20.648 -39.651  0.00  0.00    +0.116 C 
ATOM      9  C   UNL     1      46.047 -22.020 -40.309  0.00  0.00    +0.015 C 
ATOM     10  C   UNL     1      45.351 -21.890 -41.683  0.00  0.00    +0.077 C 
ATOM     11  C   UNL     1      44.452 -20.681 -41.847  0.00  0.00    -0.059 C 
ATOM     12  C   UNL     1      44.148 -19.819 -40.854  0.00  0.00    -0.071 C 
ATOM     13  C   UNL     1      44.638 -20.090 -39.455  0.00  0.00    +0.056 C 
ATOM     14  C   UNL     1      43.607 -20.948 -38.682  0.00  0.00    -0.020 C 
ATOM     15  C   UNL     1      42.192 -20.322 -38.594  0.00  0.00    +0.016 C 
ATOM     16  N   UNL     1      42.066 -19.058 -37.844  0.00  0.00    -0.296 N 
ATOM     17  C   UNL     1      41.227 -18.862 -36.738  0.00  0.00    +0.230 C 
ATOM     18  O   UNL     1      41.272 -17.813 -36.087  0.00  0.00    -0.274 OA
ATOM     19  C   UNL     1      42.817 -17.888 -38.319  0.00  0.00    +0.040 C 
ENDROOT
BRANCH   1  21
ATOM     20  C   UNL     1      48.351 -18.829 -35.094  0.00  0.00    +0.079 C 
ATOM     21  O   UNL     1      48.085 -19.004 -36.479  0.00  0.00    -0.491 OA
ENDBRANCH   1  21
BRANCH  10  22
ATOM     22  O   UNL     1      46.345 -21.761 -42.697  0.00  0.00    -0.388 OA
ATOM     23  H   UNL     1      46.374 -20.841 -43.006  0.00  0.00    +0.000 HD
ENDBRANCH  10  22
BRANCH  17  24
ATOM     24  C   UNL     1      40.239 -19.998 -36.389  0.00  0.00    +0.076 C 
BRANCH  24  25
ATOM     25  N   UNL     1      40.117 -20.230 -34.928  0.00  0.00    -0.294 N 
ATOM     26  C   UNL     1      41.324 -20.900 -34.421  0.00  0.00    -0.001 C 
ATOM     27  C   UNL     1      41.251 -21.119 -32.909  0.00  0.00    -0.040 C 
ATOM     28  C   UNL     1      40.001 -21.899 -32.522  0.00  0.00    -0.051 C 
ATOM     29  C   UNL     1      38.761 -21.236 -33.109  0.00  0.00    -0.040 C 
ATOM     30  C   UNL     1      38.909 -21.015 -34.615  0.00  0.00    -0.001 C 
ATOM     31  H   UNL     1      40.027 -19.327 -34.463  0.00  0.00    +0.000 HD
ENDBRANCH  24  25
ENDBRANCH  17  24
TORSDOF 4
ENDMDL
MODEL 12
REMARK VINA RESULT:    -6.548     16.894     21.017
REMARK INTER + INTRA:          -8.294
REMARK INTER:                  -7.967
REMARK INTRA:                  -0.327
REMARK UNBOUND:                -0.407
REMARK  Name = cpd312.pdb
REMARK  5 active torsions:
REMARK  status: ('A' for Active; 'I' for Inactive)
REMARK    1  A    between atoms: C_1  and  O_2
REMARK    2  A    between atoms: O_2  and  C_3
REMARK    3  A    between atoms: C_12  and  O_13
REMARK    4  A    between atoms: C_20  and  C_22
REMARK    5  A    between atoms: C_22  and  N_23
REMARK                            x       y       z     vdW  Elec       q    Type
REMARK                         _______ _______ _______ _____ _____    ______ ____
ROOT
ATOM      1  C   UNL     1      40.726 -20.908 -38.069  0.00  0.00    +0.162 A 
ATOM      2  C   UNL     1      41.055 -19.579 -38.350  0.00  0.00    -0.016 A 
ATOM      3  C   UNL     1      41.122 -18.619 -37.318  0.00  0.00    -0.053 A 
ATOM      4  C   UNL     1      40.810 -18.950 -35.991  0.00  0.00    -0.022 A 
ATOM      5  C   UNL     1      40.370 -20.239 -35.741  0.00  0.00    +0.016 A 
ATOM      6  C   UNL     1      40.412 -21.209 -36.753  0.00  0.00    +0.167 A 
ATOM      7  O   UNL     1      40.235 -22.497 -36.261  0.00  0.00    -0.484 OA
ATOM      8  C   UNL     1      39.559 -22.210 -35.034  0.00  0.00    +0.116 C 
ATOM      9  C   UNL     1      39.510 -23.330 -34.006  0.00  0.00    +0.015 C 
ATOM     10  C   UNL     1      38.639 -22.865 -32.816  0.00  0.00    +0.077 C 
ATOM     11  C   UNL     1      38.477 -21.366 -32.674  0.00  0.00    -0.059 C 
ATOM     12  C   UNL     1      39.128 -20.455 -33.428  0.00  0.00    -0.071 C 
ATOM     13  C   UNL     1      40.161 -20.914 -34.425  0.00  0.00    +0.056 C 
ATOM     14  C   UNL     1      41.556 -20.984 -33.759  0.00  0.00    -0.020 C 
ATOM     15  C   UNL     1      42.035 -19.649 -33.136  0.00  0.00    +0.016 C 
ATOM     16  N   UNL     1      42.266 -18.524 -34.061  0.00  0.00    -0.296 N 
ATOM     17  C   UNL     1      43.480 -17.839 -34.205  0.00  0.00    +0.230 C 
ATOM     18  O   UNL     1      43.629 -16.992 -35.092  0.00  0.00    -0.274 OA
ATOM     19  C   UNL     1      41.130 -18.027 -34.850  0.00  0.00    +0.040 C 
ENDROOT
BRANCH   1  21
ATOM     20  C   UNL     1      41.626 -21.873 -40.042  0.00  0.00    +0.079 C 
ATOM     21  O   UNL     1      40.707 -21.940 -38.961  0.00  0.00    -0.491 OA
ENDBRANCH   1  21
BRANCH  10  22
ATOM     22  O   UNL     1      37.318 -23.373 -32.982  0.00  0.00    -0.388 OA
ATOM     23  H   UNL     1      37.353 -24.218 -33.457  0.00  0.00    +0.000 HD
ENDBRANCH  10  22
BRANCH  17  24
ATOM     24  C   UNL     1      44.606 -18.175 -33.200  0.00  0.00    +0.076 C 
BRANCH  24  25
ATOM     25  N   UNL     1      45.815 -18.738 -33.851  0.00  0.00    -0.294 N 
ATOM     26  C   UNL     1      46.704 -17.653 -34.288  0.00  0.00    -0.001 C 
ATOM     27  C   UNL     1      47.982 -18.198 -34.928  0.00  0.00    -0.040 C 
ATOM     28  C   UNL     1      47.665 -19.133 -36.088  0.00  0.00    -0.051 C 
ATOM     29  C   UNL     1      46.689 -20.215 -35.643  0.00  0.00    -0.040 C 
ATOM     30  C   UNL     1      45.450 -19.608 -34.984  0.00  0.00    -0.001 C 
ATOM     31  H   UNL     1      46.312 -19.311 -33.169  0.00  0.00    +0.000 HD
ENDBRANCH  24  25
ENDBRANCH  17  24
TORSDOF 4
ENDMDL
MODEL 13
REMARK VINA RESULT:    -6.452     17.055     21.254
REMARK INTER + INTRA:          -8.179
REMARK INTER:                  -7.846
REMARK INTRA:                  -0.334
REMARK UNBOUND:                -0.407
REMARK  Name = cpd312.pdb
REMARK  5 active torsions:
REMARK  status: ('A' for Active; 'I' for Inactive)
REMARK    1  A    between atoms: C_1  and  O_2
REMARK    2  A    between atoms: O_2  and  C_3
REMARK    3  A    between atoms: C_12  and  O_13
REMARK    4  A    between atoms: C_20  and  C_22
REMARK    5  A    between atoms: C_22  and  N_23
REMARK                            x       y       z     vdW  Elec       q    Type
REMARK                         _______ _______ _______ _____ _____    ______ ____
ROOT
ATOM      1  C   UNL     1      40.721 -17.565 -32.979  0.00  0.00    +0.162 A 
ATOM      2  C   UNL     1      42.094 -17.335 -32.867  0.00  0.00    -0.016 A 
ATOM      3  C   UNL     1      43.026 -18.324 -33.246  0.00  0.00    -0.053 A 
ATOM      4  C   UNL     1      42.609 -19.586 -33.695  0.00  0.00    -0.022 A 
ATOM      5  C   UNL     1      41.249 -19.848 -33.690  0.00  0.00    +0.016 A 
ATOM      6  C   UNL     1      40.332 -18.823 -33.415  0.00  0.00    +0.167 A 
ATOM      7  O   UNL     1      39.029 -19.171 -33.752  0.00  0.00    -0.484 OA
ATOM      8  C   UNL     1      39.132 -20.598 -33.724  0.00  0.00    +0.116 C 
ATOM      9  C   UNL     1      38.012 -21.374 -34.400  0.00  0.00    +0.015 C 
ATOM     10  C   UNL     1      38.244 -22.883 -34.154  0.00  0.00    +0.077 C 
ATOM     11  C   UNL     1      39.664 -23.274 -33.799  0.00  0.00    -0.059 C 
ATOM     12  C   UNL     1      40.713 -22.425 -33.809  0.00  0.00    -0.071 C 
ATOM     13  C   UNL     1      40.521 -21.008 -34.286  0.00  0.00    +0.056 C 
ATOM     14  C   UNL     1      40.760 -20.919 -35.812  0.00  0.00    -0.020 C 
ATOM     15  C   UNL     1      42.158 -21.405 -36.269  0.00  0.00    +0.016 C 
ATOM     16  N   UNL     1      43.322 -20.633 -35.797  0.00  0.00    -0.296 N 
ATOM     17  C   UNL     1      44.270 -20.020 -36.628  0.00  0.00    +0.230 C 
ATOM     18  O   UNL     1      45.144 -19.285 -36.158  0.00  0.00    -0.274 OA
ATOM     19  C   UNL     1      43.560 -20.546 -34.349  0.00  0.00    +0.040 C 
ENDROOT
BRANCH   1  21
ATOM     20  C   UNL     1      40.128 -15.358 -32.338  0.00  0.00    +0.079 C 
ATOM     21  O   UNL     1      39.728 -16.666 -32.723  0.00  0.00    -0.491 OA
ENDBRANCH   1  21
BRANCH  10  22
ATOM     22  O   UNL     1      37.450 -23.299 -33.046  0.00  0.00    -0.388 OA
ATOM     23  H   UNL     1      37.935 -23.965 -32.532  0.00  0.00    +0.000 HD
ENDBRANCH  10  22
BRANCH  17  24
ATOM     24  C   UNL     1      44.183 -20.320 -38.142  0.00  0.00    +0.076 C 
BRANCH  24  25
ATOM     25  N   UNL     1      45.486 -20.170 -38.838  0.00  0.00    -0.294 N 
ATOM     26  C   UNL     1      45.294 -19.490 -40.127  0.00  0.00    -0.001 C 
ATOM     27  C   UNL     1      46.623 -19.282 -40.855  0.00  0.00    -0.040 C 
ATOM     28  C   UNL     1      47.362 -20.599 -41.047  0.00  0.00    -0.051 C 
ATOM     29  C   UNL     1      47.496 -21.329 -39.716  0.00  0.00    -0.040 C 
ATOM     30  C   UNL     1      46.140 -21.477 -39.024  0.00  0.00    -0.001 C 
ATOM     31  H   UNL     1      46.098 -19.598 -38.257  0.00  0.00    +0.000 HD
ENDBRANCH  24  25
ENDBRANCH  17  24
TORSDOF 4
ENDMDL
MODEL 14
REMARK VINA RESULT:    -6.321     16.837     20.844
REMARK INTER + INTRA:          -8.021
REMARK INTER:                  -7.664
REMARK INTRA:                  -0.357
REMARK UNBOUND:                -0.407
REMARK  Name = cpd312.pdb
REMARK  5 active torsions:
REMARK  status: ('A' for Active; 'I' for Inactive)
REMARK    1  A    between atoms: C_1  and  O_2
REMARK    2  A    between atoms: O_2  and  C_3
REMARK    3  A    between atoms: C_12  and  O_13
REMARK    4  A    between atoms: C_20  and  C_22
REMARK    5  A    between atoms: C_22  and  N_23
REMARK                            x       y       z     vdW  Elec       q    Type
REMARK                         _______ _______ _______ _____ _____    ______ ____
ROOT
ATOM      1  C   UNL     1      40.075 -22.210 -33.217  0.00  0.00    +0.162 A 
ATOM      2  C   UNL     1      39.868 -23.133 -34.245  0.00  0.00    -0.016 A 
ATOM      3  C   UNL     1      39.675 -22.704 -35.575  0.00  0.00    -0.053 A 
ATOM      4  C   UNL     1      39.632 -21.340 -35.902  0.00  0.00    -0.022 A 
ATOM      5  C   UNL     1      39.719 -20.431 -34.861  0.00  0.00    +0.016 A 
ATOM      6  C   UNL     1      40.017 -20.868 -33.563  0.00  0.00    +0.167 A 
ATOM      7  O   UNL     1      40.371 -19.821 -32.718  0.00  0.00    -0.484 OA
ATOM      8  C   UNL     1      39.754 -18.726 -33.400  0.00  0.00    +0.116 C 
ATOM      9  C   UNL     1      40.214 -17.331 -33.002  0.00  0.00    +0.015 C 
ATOM     10  C   UNL     1      39.349 -16.296 -33.757  0.00  0.00    +0.077 C 
ATOM     11  C   UNL     1      38.665 -16.807 -35.008  0.00  0.00    -0.059 C 
ATOM     12  C   UNL     1      38.865 -18.032 -35.539  0.00  0.00    -0.071 C 
ATOM     13  C   UNL     1      39.895 -18.949 -34.931  0.00  0.00    +0.056 C 
ATOM     14  C   UNL     1      41.275 -18.717 -35.591  0.00  0.00    -0.020 C 
ATOM     15  C   UNL     1      41.289 -18.913 -37.128  0.00  0.00    +0.016 C 
ATOM     16  N   UNL     1      41.005 -20.270 -37.632  0.00  0.00    -0.296 N 
ATOM     17  C   UNL     1      41.867 -21.021 -38.443  0.00  0.00    +0.230 C 
ATOM     18  O   UNL     1      41.612 -22.198 -38.718  0.00  0.00    -0.274 OA
ATOM     19  C   UNL     1      39.698 -20.867 -37.326  0.00  0.00    +0.040 C 
ENDROOT
BRANCH   1  21
ATOM     20  C   UNL     1      41.330 -23.500 -31.671  0.00  0.00    +0.079 C 
ATOM     21  O   UNL     1      40.350 -22.500 -31.914  0.00  0.00    -0.491 OA
ENDBRANCH   1  21
BRANCH  10  22
ATOM     22  O   UNL     1      38.295 -15.860 -32.902  0.00  0.00    -0.388 OA
ATOM     23  H   UNL     1      38.295 -16.394 -32.091  0.00  0.00    +0.000 HD
ENDBRANCH  10  22
BRANCH  17  24
ATOM     24  C   UNL     1      43.126 -20.310 -38.989  0.00  0.00    +0.076 C 
BRANCH  24  25
ATOM     25  N   UNL     1      44.069 -21.237 -39.664  0.00  0.00    -0.294 N 
ATOM     26  C   UNL     1      45.424 -21.058 -39.125  0.00  0.00    -0.001 C 
ATOM     27  C   UNL     1      46.417 -22.027 -39.769  0.00  0.00    -0.040 C 
ATOM     28  C   UNL     1      46.419 -21.891 -41.287  0.00  0.00    -0.051 C 
ATOM     29  C   UNL     1      45.000 -22.009 -41.830  0.00  0.00    -0.040 C 
ATOM     30  C   UNL     1      44.052 -21.039 -41.124  0.00  0.00    -0.001 C 
ATOM     31  H   UNL     1      43.769 -22.194 -39.479  0.00  0.00    +0.000 HD
ENDBRANCH  24  25
ENDBRANCH  17  24
TORSDOF 4
ENDMDL
MODEL 15
REMARK VINA RESULT:    -6.314     22.239     25.030
REMARK INTER + INTRA:          -8.013
REMARK INTER:                  -7.427
REMARK INTRA:                  -0.586
REMARK UNBOUND:                -0.407
REMARK  Name = cpd312.pdb
REMARK  5 active torsions:
REMARK  status: ('A' for Active; 'I' for Inactive)
REMARK    1  A    between atoms: C_1  and  O_2
REMARK    2  A    between atoms: O_2  and  C_3
REMARK    3  A    between atoms: C_12  and  O_13
REMARK    4  A    between atoms: C_20  and  C_22
REMARK    5  A    between atoms: C_22  and  N_23
REMARK                            x       y       z     vdW  Elec       q    Type
REMARK                         _______ _______ _______ _____ _____    ______ ____
ROOT
ATOM      1  C   UNL     1      46.630 -18.859 -36.123  0.00  0.00    +0.162 A 
ATOM      2  C   UNL     1      47.070 -17.536 -36.044  0.00  0.00    -0.016 A 
ATOM      3  C   UNL     1      47.284 -16.774 -37.212  0.00  0.00    -0.053 A 
ATOM      4  C   UNL     1      47.114 -17.332 -38.488  0.00  0.00    -0.022 A 
ATOM      5  C   UNL     1      46.794 -18.678 -38.559  0.00  0.00    +0.016 A 
ATOM      6  C   UNL     1      46.480 -19.392 -37.394  0.00  0.00    +0.167 A 
ATOM      7  O   UNL     1      45.888 -20.621 -37.668  0.00  0.00    -0.484 OA
ATOM      8  C   UNL     1      46.355 -20.835 -39.004  0.00  0.00    +0.116 C 
ATOM      9  C   UNL     1      45.632 -21.900 -39.814  0.00  0.00    +0.015 C 
ATOM     10  C   UNL     1      46.359 -22.062 -41.169  0.00  0.00    +0.077 C 
ATOM     11  C   UNL     1      47.213 -20.885 -41.595  0.00  0.00    -0.059 C 
ATOM     12  C   UNL     1      47.268 -19.708 -40.937  0.00  0.00    -0.071 C 
ATOM     13  C   UNL     1      46.370 -19.473 -39.751  0.00  0.00    +0.056 C 
ATOM     14  C   UNL     1      45.023 -18.863 -40.209  0.00  0.00    -0.020 C 
ATOM     15  C   UNL     1      45.158 -17.533 -40.993  0.00  0.00    +0.016 C 
ATOM     16  N   UNL     1      45.710 -16.378 -40.260  0.00  0.00    -0.296 N 
ATOM     17  C   UNL     1      45.055 -15.151 -40.086  0.00  0.00    +0.230 C 
ATOM     18  O   UNL     1      45.529 -14.278 -39.353  0.00  0.00    -0.274 OA
ATOM     19  C   UNL     1      47.074 -16.480 -39.724  0.00  0.00    +0.040 C 
ENDROOT
BRANCH   1  21
ATOM     20  C   UNL     1      45.122 -19.360 -34.360  0.00  0.00    +0.079 C 
ATOM     21  O   UNL     1      46.312 -19.669 -35.073  0.00  0.00    -0.491 OA
ENDBRANCH   1  21
BRANCH  10  22
ATOM     22  O   UNL     1      47.254 -23.167 -41.086  0.00  0.00    -0.388 OA
ATOM     23  H   UNL     1      47.886 -23.019 -40.364  0.00  0.00    +0.000 HD
ENDBRANCH  10  22
BRANCH  17  24
ATOM     24  C   UNL     1      43.736 -14.936 -40.863  0.00  0.00    +0.076 C 
BRANCH  24  25
ATOM     25  N   UNL     1      42.558 -14.783 -39.973  0.00  0.00    -0.294 N 
ATOM     26  C   UNL     1      42.393 -15.985 -39.142  0.00  0.00    -0.001 C 
ATOM     27  C   UNL     1      41.211 -15.846 -38.182  0.00  0.00    -0.040 C 
ATOM     28  C   UNL     1      39.923 -15.531 -38.932  0.00  0.00    -0.051 C 
ATOM     29  C   UNL     1      40.122 -14.325 -39.842  0.00  0.00    -0.040 C 
ATOM     30  C   UNL     1      41.337 -14.512 -40.753  0.00  0.00    -0.001 C 
ATOM     31  H   UNL     1      42.717 -13.983 -39.361  0.00  0.00    +0.000 HD
ENDBRANCH  24  25
ENDBRANCH  17  24
TORSDOF 4
ENDMDL
MODEL 16
REMARK VINA RESULT:    -6.312     26.097     30.404
REMARK INTER + INTRA:          -8.011
REMARK INTER:                  -7.556
REMARK INTRA:                  -0.455
REMARK UNBOUND:                -0.407
REMARK  Name = cpd312.pdb
REMARK  5 active torsions:
REMARK  status: ('A' for Active; 'I' for Inactive)
REMARK    1  A    between atoms: C_1  and  O_2
REMARK    2  A    between atoms: O_2  and  C_3
REMARK    3  A    between atoms: C_12  and  O_13
REMARK    4  A    between atoms: C_20  and  C_22
REMARK    5  A    between atoms: C_22  and  N_23
REMARK                            x       y       z     vdW  Elec       q    Type
REMARK                         _______ _______ _______ _____ _____    ______ ____
ROOT
ATOM      1  C   UNL     1      52.375 -31.975 -53.812  0.00  0.00    +0.162 A 
ATOM      2  C   UNL     1      51.976 -33.308 -53.684  0.00  0.00    -0.016 A 
ATOM      3  C   UNL     1      52.931 -34.344 -53.611  0.00  0.00    -0.053 A 
ATOM      4  C   UNL     1      54.304 -34.079 -53.717  0.00  0.00    -0.022 A 
ATOM      5  C   UNL     1      54.685 -32.771 -53.963  0.00  0.00    +0.016 A 
ATOM      6  C   UNL     1      53.736 -31.739 -53.926  0.00  0.00    +0.167 A 
ATOM      7  O   UNL     1      54.324 -30.479 -53.883  0.00  0.00    -0.484 OA
ATOM      8  C   UNL     1      55.608 -30.779 -54.436  0.00  0.00    +0.116 C 
ATOM      9  C   UNL     1      56.699 -29.740 -54.224  0.00  0.00    +0.015 C 
ATOM     10  C   UNL     1      57.961 -30.191 -54.994  0.00  0.00    +0.077 C 
ATOM     11  C   UNL     1      58.033 -31.669 -55.320  0.00  0.00    -0.059 C 
ATOM     12  C   UNL     1      57.148 -32.589 -54.880  0.00  0.00    -0.071 C 
ATOM     13  C   UNL     1      56.056 -32.177 -53.928  0.00  0.00    +0.056 C 
ATOM     14  C   UNL     1      56.539 -32.315 -52.464  0.00  0.00    -0.020 C 
ATOM     15  C   UNL     1      57.014 -33.739 -52.080  0.00  0.00    +0.016 C 
ATOM     16  N   UNL     1      56.002 -34.810 -52.102  0.00  0.00    -0.296 N 
ATOM     17  C   UNL     1      55.662 -35.616 -51.006  0.00  0.00    +0.230 C 
ATOM     18  O   UNL     1      54.714 -36.406 -51.070  0.00  0.00    -0.274 OA
ATOM     19  C   UNL     1      55.337 -35.115 -53.377  0.00  0.00    +0.040 C 
ENDROOT
BRANCH   1  21
ATOM     20  C   UNL     1      50.198 -31.098 -53.457  0.00  0.00    +0.079 C 
ATOM     21  O   UNL     1      51.557 -30.884 -53.813  0.00  0.00    -0.491 OA
ENDBRANCH   1  21
BRANCH  10  22
ATOM     22  O   UNL     1      57.998 -29.526 -56.255  0.00  0.00    -0.388 OA
ATOM     23  H   UNL     1      57.099 -29.257 -56.504  0.00  0.00    +0.000 HD
ENDBRANCH  10  22
BRANCH  17  24
ATOM     24  C   UNL     1      56.532 -35.486 -49.735  0.00  0.00    +0.076 C 
BRANCH  24  25
ATOM     25  N   UNL     1      55.833 -34.794 -48.623  0.00  0.00    -0.294 N 
ATOM     26  C   UNL     1      56.779 -33.947 -47.883  0.00  0.00    -0.001 C 
ATOM     27  C   UNL     1      56.084 -33.185 -46.753  0.00  0.00    -0.040 C 
ATOM     28  C   UNL     1      55.361 -34.136 -45.807  0.00  0.00    -0.051 C 
ATOM     29  C   UNL     1      54.434 -35.056 -46.591  0.00  0.00    -0.040 C 
ATOM     30  C   UNL     1      55.179 -35.762 -47.725  0.00  0.00    -0.001 C 
ATOM     31  H   UNL     1      55.105 -34.200 -49.019  0.00  0.00    +0.000 HD
ENDBRANCH  24  25
ENDBRANCH  17  24
TORSDOF 4
ENDMDL
MODEL 17
REMARK VINA RESULT:    -6.268     22.155     23.701
REMARK INTER + INTRA:          -7.957
REMARK INTER:                  -7.550
REMARK INTRA:                  -0.408
REMARK UNBOUND:                -0.407
REMARK  Name = cpd312.pdb
REMARK  5 active torsions:
REMARK  status: ('A' for Active; 'I' for Inactive)
REMARK    1  A    between atoms: C_1  and  O_2
REMARK    2  A    between atoms: O_2  and  C_3
REMARK    3  A    between atoms: C_12  and  O_13
REMARK    4  A    between atoms: C_20  and  C_22
REMARK    5  A    between atoms: C_22  and  N_23
REMARK                            x       y       z     vdW  Elec       q    Type
REMARK                         _______ _______ _______ _____ _____    ______ ____
ROOT
ATOM      1  C   UNL     1      47.337 -18.430 -37.012  0.00  0.00    +0.162 A 
ATOM      2  C   UNL     1      46.786 -17.163 -36.807  0.00  0.00    -0.016 A 
ATOM      3  C   UNL     1      45.744 -16.687 -37.630  0.00  0.00    -0.053 A 
ATOM      4  C   UNL     1      45.265 -17.441 -38.711  0.00  0.00    -0.022 A 
ATOM      5  C   UNL     1      45.898 -18.643 -38.981  0.00  0.00    +0.016 A 
ATOM      6  C   UNL     1      46.855 -19.153 -38.093  0.00  0.00    +0.167 A 
ATOM      7  O   UNL     1      47.156 -20.487 -38.345  0.00  0.00    -0.484 OA
ATOM      8  C   UNL     1      46.759 -20.582 -39.717  0.00  0.00    +0.116 C 
ATOM      9  C   UNL     1      46.578 -21.985 -40.276  0.00  0.00    +0.015 C 
ATOM     10  C   UNL     1      46.273 -21.873 -41.788  0.00  0.00    +0.077 C 
ATOM     11  C   UNL     1      45.736 -20.533 -42.247  0.00  0.00    -0.059 C 
ATOM     12  C   UNL     1      45.410 -19.519 -41.417  0.00  0.00    -0.071 C 
ATOM     13  C   UNL     1      45.483 -19.723 -39.926  0.00  0.00    +0.056 C 
ATOM     14  C   UNL     1      44.132 -20.257 -39.391  0.00  0.00    -0.020 C 
ATOM     15  C   UNL     1      42.917 -19.348 -39.705  0.00  0.00    +0.016 C 
ATOM     16  N   UNL     1      42.907 -18.009 -39.088  0.00  0.00    -0.296 N 
ATOM     17  C   UNL     1      41.899 -17.519 -38.246  0.00  0.00    +0.230 C 
ATOM     18  O   UNL     1      42.026 -16.435 -37.669  0.00  0.00    -0.274 OA
ATOM     19  C   UNL     1      43.995 -17.079 -39.425  0.00  0.00    +0.040 C 
ENDROOT
BRANCH   1  21
ATOM     20  C   UNL     1      48.320 -18.675 -34.866  0.00  0.00    +0.079 C 
ATOM     21  O   UNL     1      48.287 -19.033 -36.241  0.00  0.00    -0.491 OA
ENDBRANCH   1  21
BRANCH  10  22
ATOM     22  O   UNL     1      47.480 -22.067 -42.520  0.00  0.00    -0.388 OA
ATOM     23  H   UNL     1      48.119 -22.546 -41.969  0.00  0.00    +0.000 HD
ENDBRANCH  10  22
BRANCH  17  24
ATOM     24  C   UNL     1      40.625 -18.381 -38.093  0.00  0.00    +0.076 C 
BRANCH  24  25
ATOM     25  N   UNL     1      39.383 -17.649 -38.448  0.00  0.00    -0.294 N 
ATOM     26  C   UNL     1      38.207 -18.382 -37.959  0.00  0.00    -0.001 C 
ATOM     27  C   UNL     1      36.910 -17.635 -38.272  0.00  0.00    -0.040 C 
ATOM     28  C   UNL     1      36.782 -17.348 -39.763  0.00  0.00    -0.051 C 
ATOM     29  C   UNL     1      38.035 -16.649 -40.275  0.00  0.00    -0.040 C 
ATOM     30  C   UNL     1      39.298 -17.427 -39.903  0.00  0.00    -0.001 C 
ATOM     31  H   UNL     1      39.407 -16.734 -37.997  0.00  0.00    +0.000 HD
ENDBRANCH  24  25
ENDBRANCH  17  24
TORSDOF 4
ENDMDL
MODEL 18
REMARK VINA RESULT:    -6.233     26.249     29.793
REMARK INTER + INTRA:          -7.915
REMARK INTER:                  -7.345
REMARK INTRA:                  -0.570
REMARK UNBOUND:                -0.407
REMARK  Name = cpd312.pdb
REMARK  5 active torsions:
REMARK  status: ('A' for Active; 'I' for Inactive)
REMARK    1  A    between atoms: C_1  and  O_2
REMARK    2  A    between atoms: O_2  and  C_3
REMARK    3  A    between atoms: C_12  and  O_13
REMARK    4  A    between atoms: C_20  and  C_22
REMARK    5  A    between atoms: C_22  and  N_23
REMARK                            x       y       z     vdW  Elec       q    Type
REMARK                         _______ _______ _______ _____ _____    ______ ____
ROOT
ATOM      1  C   UNL     1      48.014 -32.561 -53.970  0.00  0.00    +0.162 A 
ATOM      2  C   UNL     1      48.944 -32.261 -54.968  0.00  0.00    -0.016 A 
ATOM      3  C   UNL     1      48.907 -32.924 -56.213  0.00  0.00    -0.053 A 
ATOM      4  C   UNL     1      47.975 -33.939 -56.471  0.00  0.00    -0.022 A 
ATOM      5  C   UNL     1      47.135 -34.313 -55.435  0.00  0.00    +0.016 A 
ATOM      6  C   UNL     1      47.110 -33.575 -54.244  0.00  0.00    +0.167 A 
ATOM      7  O   UNL     1      46.012 -33.888 -53.449  0.00  0.00    -0.484 OA
ATOM      8  C   UNL     1      45.700 -35.192 -53.947  0.00  0.00    +0.116 C 
ATOM      9  C   UNL     1      44.326 -35.743 -53.598  0.00  0.00    +0.015 C 
ATOM     10  C   UNL     1      44.234 -37.195 -54.119  0.00  0.00    +0.077 C 
ATOM     11  C   UNL     1      45.207 -37.554 -55.223  0.00  0.00    -0.059 C 
ATOM     12  C   UNL     1      46.029 -36.672 -55.830  0.00  0.00    -0.071 C 
ATOM     13  C   UNL     1      45.939 -35.209 -55.482  0.00  0.00    +0.056 C 
ATOM     14  C   UNL     1      44.916 -34.500 -56.401  0.00  0.00    -0.020 C 
ATOM     15  C   UNL     1      45.221 -34.627 -57.915  0.00  0.00    +0.016 C 
ATOM     16  N   UNL     1      46.461 -33.995 -58.402  0.00  0.00    -0.296 N 
ATOM     17  C   UNL     1      46.522 -33.013 -59.401  0.00  0.00    +0.230 C 
ATOM     18  O   UNL     1      47.585 -32.442 -59.664  0.00  0.00    -0.274 OA
ATOM     19  C   UNL     1      47.743 -34.465 -57.859  0.00  0.00    +0.040 C 
ENDROOT
BRANCH   1  21
ATOM     20  C   UNL     1      47.170 -30.717 -52.737  0.00  0.00    +0.079 C 
ATOM     21  O   UNL     1      47.897 -31.938 -52.762  0.00  0.00    -0.491 OA
ENDBRANCH   1  21
BRANCH  10  22
ATOM     22  O   UNL     1      44.528 -38.091 -53.050  0.00  0.00    -0.388 OA
ATOM     23  H   UNL     1      44.965 -37.606 -52.332  0.00  0.00    +0.000 HD
ENDBRANCH  10  22
BRANCH  17  24
ATOM     24  C   UNL     1      45.216 -32.697 -60.165  0.00  0.00    +0.076 C 
BRANCH  24  25
ATOM     25  N   UNL     1      44.750 -31.302 -59.963  0.00  0.00    -0.294 N 
ATOM     26  C   UNL     1      44.528 -31.046 -58.533  0.00  0.00    -0.001 C 
ATOM     27  C   UNL     1      44.086 -29.603 -58.283  0.00  0.00    -0.040 C 
ATOM     28  C   UNL     1      42.841 -29.258 -59.090  0.00  0.00    -0.051 C 
ATOM     29  C   UNL     1      43.056 -29.591 -60.562  0.00  0.00    -0.040 C 
ATOM     30  C   UNL     1      43.527 -31.034 -60.742  0.00  0.00    -0.001 C 
ATOM     31  H   UNL     1      45.475 -30.668 -60.299  0.00  0.00    +0.000 HD
ENDBRANCH  24  25
ENDBRANCH  17  24
TORSDOF 4
ENDMDL
MODEL 19
REMARK VINA RESULT:    -6.093     18.725     22.217
REMARK INTER + INTRA:          -7.746
REMARK INTER:                  -7.614
REMARK INTRA:                  -0.132
REMARK UNBOUND:                -0.407
REMARK  Name = cpd312.pdb
REMARK  5 active torsions:
REMARK  status: ('A' for Active; 'I' for Inactive)
REMARK    1  A    between atoms: C_1  and  O_2
REMARK    2  A    between atoms: O_2  and  C_3
REMARK    3  A    between atoms: C_12  and  O_13
REMARK    4  A    between atoms: C_20  and  C_22
REMARK    5  A    between atoms: C_22  and  N_23
REMARK                            x       y       z     vdW  Elec       q    Type
REMARK                         _______ _______ _______ _____ _____    ______ ____
ROOT
ATOM      1  C   UNL     1      43.858 -16.422 -32.675  0.00  0.00    +0.162 A 
ATOM      2  C   UNL     1      45.229 -16.593 -32.884  0.00  0.00    -0.016 A 
ATOM      3  C   UNL     1      45.724 -17.750 -33.523  0.00  0.00    -0.053 A 
ATOM      4  C   UNL     1      44.867 -18.787 -33.920  0.00  0.00    -0.022 A 
ATOM      5  C   UNL     1      43.525 -18.663 -33.603  0.00  0.00    +0.016 A 
ATOM      6  C   UNL     1      43.032 -17.465 -33.066  0.00  0.00    +0.167 A 
ATOM      7  O   UNL     1      41.644 -17.400 -33.099  0.00  0.00    -0.484 OA
ATOM      8  C   UNL     1      41.326 -18.793 -33.166  0.00  0.00    +0.116 C 
ATOM      9  C   UNL     1      39.909 -19.147 -33.592  0.00  0.00    +0.015 C 
ATOM     10  C   UNL     1      39.734 -20.680 -33.483  0.00  0.00    +0.077 C 
ATOM     11  C   UNL     1      41.016 -21.485 -33.497  0.00  0.00    -0.059 C 
ATOM     12  C   UNL     1      42.241 -20.962 -33.717  0.00  0.00    -0.071 C 
ATOM     13  C   UNL     1      42.377 -19.502 -34.063  0.00  0.00    +0.056 C 
ATOM     14  C   UNL     1      42.298 -19.304 -35.596  0.00  0.00    -0.020 C 
ATOM     15  C   UNL     1      43.358 -20.100 -36.398  0.00  0.00    +0.016 C 
ATOM     16  N   UNL     1      44.771 -19.738 -36.181  0.00  0.00    -0.296 N 
ATOM     17  C   UNL     1      45.656 -19.317 -37.184  0.00  0.00    +0.230 C 
ATOM     18  O   UNL     1      46.787 -18.910 -36.901  0.00  0.00    -0.274 OA
ATOM     19  C   UNL     1      45.329 -19.889 -34.830  0.00  0.00    +0.040 C 
ENDROOT
BRANCH   1  21
ATOM     20  C   UNL     1      43.692 -14.056 -32.620  0.00  0.00    +0.079 C 
ATOM     21  O   UNL     1      43.254 -15.321 -32.145  0.00  0.00    -0.491 OA
ENDBRANCH   1  21
BRANCH  10  22
ATOM     22  O   UNL     1      39.110 -20.987 -32.238  0.00  0.00    -0.388 OA
ATOM     23  H   UNL     1      38.727 -20.180 -31.859  0.00  0.00    +0.000 HD
ENDBRANCH  10  22
BRANCH  17  24
ATOM     24  C   UNL     1      45.161 -19.403 -38.646  0.00  0.00    +0.076 C 
BRANCH  24  25
ATOM     25  N   UNL     1      45.619 -20.633 -39.340  0.00  0.00    -0.294 N 
ATOM     26  C   UNL     1      47.088 -20.668 -39.388  0.00  0.00    -0.001 C 
ATOM     27  C   UNL     1      47.597 -21.943 -40.062  0.00  0.00    -0.040 C 
ATOM     28  C   UNL     1      47.010 -22.104 -41.459  0.00  0.00    -0.051 C 
ATOM     29  C   UNL     1      45.491 -21.998 -41.409  0.00  0.00    -0.040 C 
ATOM     30  C   UNL     1      45.046 -20.720 -40.695  0.00  0.00    -0.001 C 
ATOM     31  H   UNL     1      45.291 -21.443 -38.814  0.00  0.00    +0.000 HD
ENDBRANCH  24  25
ENDBRANCH  17  24
TORSDOF 4
ENDMDL
MODEL 20
REMARK VINA RESULT:    -6.025     17.537     21.733
REMARK INTER + INTRA:          -7.665
REMARK INTER:                  -7.103
REMARK INTRA:                  -0.562
REMARK UNBOUND:                -0.407
REMARK  Name = cpd312.pdb
REMARK  5 active torsions:
REMARK  status: ('A' for Active; 'I' for Inactive)
REMARK    1  A    between atoms: C_1  and  O_2
REMARK    2  A    between atoms: O_2  and  C_3
REMARK    3  A    between atoms: C_12  and  O_13
REMARK    4  A    between atoms: C_20  and  C_22
REMARK    5  A    between atoms: C_22  and  N_23
REMARK                            x       y       z     vdW  Elec       q    Type
REMARK                         _______ _______ _______ _____ _____    ______ ____
ROOT
ATOM      1  C   UNL     1      38.874 -17.942 -36.656  0.00  0.00    +0.162 A 
ATOM      2  C   UNL     1      39.735 -16.852 -36.806  0.00  0.00    -0.016 A 
ATOM      3  C   UNL     1      41.084 -16.936 -36.405  0.00  0.00    -0.053 A 
ATOM      4  C   UNL     1      41.594 -18.093 -35.796  0.00  0.00    -0.022 A 
ATOM      5  C   UNL     1      40.705 -19.125 -35.542  0.00  0.00    +0.016 A 
ATOM      6  C   UNL     1      39.397 -19.070 -36.042  0.00  0.00    +0.167 A 
ATOM      7  O   UNL     1      38.749 -20.298 -35.968  0.00  0.00    -0.484 OA
ATOM      8  C   UNL     1      39.510 -20.925 -34.932  0.00  0.00    +0.116 C 
ATOM      9  C   UNL     1      39.361 -22.433 -34.796  0.00  0.00    +0.015 C 
ATOM     10  C   UNL     1      40.160 -22.894 -33.556  0.00  0.00    +0.077 C 
ATOM     11  C   UNL     1      41.249 -21.948 -33.093  0.00  0.00    -0.059 C 
ATOM     12  C   UNL     1      41.620 -20.832 -33.757  0.00  0.00    -0.071 C 
ATOM     13  C   UNL     1      41.000 -20.519 -35.093  0.00  0.00    +0.056 C 
ATOM     14  C   UNL     1      41.826 -21.164 -36.233  0.00  0.00    -0.020 C 
ATOM     15  C   UNL     1      43.313 -20.731 -36.267  0.00  0.00    +0.016 C 
ATOM     16  N   UNL     1      43.590 -19.309 -36.544  0.00  0.00    -0.296 N 
ATOM     17  C   UNL     1      44.373 -18.835 -37.606  0.00  0.00    +0.230 C 
ATOM     18  O   UNL     1      44.452 -17.626 -37.845  0.00  0.00    -0.274 OA
ATOM     19  C   UNL     1      43.069 -18.303 -35.608  0.00  0.00    +0.040 C 
ENDROOT
BRANCH   1  21
ATOM     20  C   UNL     1      37.343 -17.852 -38.467  0.00  0.00    +0.079 C 
ATOM     21  O   UNL     1      37.578 -18.012 -37.075  0.00  0.00    -0.491 OA
ENDBRANCH   1  21
BRANCH  10  22
ATOM     22  O   UNL     1      39.270 -23.014 -32.449  0.00  0.00    -0.388 OA
ATOM     23  H   UNL     1      39.652 -22.567 -31.677  0.00  0.00    +0.000 HD
ENDBRANCH  10  22
BRANCH  17  24
ATOM     24  C   UNL     1      45.140 -19.884 -38.443  0.00  0.00    +0.076 C 
BRANCH  24  25
ATOM     25  N   UNL     1      44.620 -20.015 -39.827  0.00  0.00    -0.294 N 
ATOM     26  C   UNL     1      44.007 -21.338 -40.013  0.00  0.00    -0.001 C 
ATOM     27  C   UNL     1      43.423 -21.493 -41.418  0.00  0.00    -0.040 C 
ATOM     28  C   UNL     1      44.476 -21.234 -42.487  0.00  0.00    -0.051 C 
ATOM     29  C   UNL     1      45.154 -19.891 -42.247  0.00  0.00    -0.040 C 
ATOM     30  C   UNL     1      45.687 -19.786 -40.817  0.00  0.00    -0.001 C 
ATOM     31  H   UNL     1      43.906 -19.302 -39.972  0.00  0.00    +0.000 HD
ENDBRANCH  24  25
ENDBRANCH  17  24
TORSDOF 4
ENDMDL
