@<TRIPOS>MOLECULE
*****
 11 10 0 0 0
SMALL
GASTEIGER

@<TRIPOS>ATOM
      1 C          -1.0000    0.7321    0.0000 C.3     1  UNL1        0.0327
      2 C          -1.5000   -0.1340    0.0000 C.3     1  UNL1        0.1265
      3 C          -2.5000   -0.1340    0.0000 C.3     1  UNL1        0.0327
      4 O          -1.0000   -1.0000    0.0000 O.3     1  UNL1       -0.2726
      5 P           0.0000   -1.0000    0.0000 P.3     1  UNL1        0.5166
      6 O           0.0000   -2.0000    0.0000 O.2     1  UNL1       -0.2226
      7 F           1.0000   -1.0000    0.0000 F       1  UNL1       -0.1326
      8 O           0.0000   -0.0000    0.0000 O.3     1  UNL1       -0.2726
      9 C           0.8660    0.5000    0.0000 C.3     1  UNL1        0.1265
     10 C           1.7321    0.0000    0.0000 C.3     1  UNL1        0.0327
     11 C           0.8660    1.5000    0.0000 C.3     1  UNL1        0.0327
@<TRIPOS>BOND
     1     1     2    1
     2     2     3    1
     3     2     4    1
     4     4     5    1
     5     5     6    2
     6     5     7    1
     7     5     8    1
     8     8     9    1
     9     9    10    1
    10     9    11    1
