REMARK  Name = cpd366.pdb
REMARK  8 active torsions:
REMARK  status: ('A' for Active; 'I' for Inactive)
REMARK    1  A    between atoms: C_1  and  C_2
REMARK    2  A    between atoms: C_2  and  C_3
REMARK    3  A    between atoms: C_2  and  O_4
REMARK    4  A    between atoms: O_4  and  P_5
REMARK    5  A    between atoms: P_5  and  O_8
REMARK    6  A    between atoms: O_8  and  C_9
REMARK    7  A    between atoms: C_9  and  C_10
REMARK    8  A    between atoms: C_9  and  C_11
REMARK                            x       y       z     vdW  Elec       q    Type
REMARK                         _______ _______ _______ _____ _____    ______ ____
ROOT
ATOM      1  P   UNL A   1       0.000  -1.000   0.000  0.00  0.00    +0.516 P 
ATOM      2  O   UNL A   1       0.000  -2.000   0.000  0.00  0.00    -0.223 OA
ATOM      3  F   UNL A   1       1.000  -1.000   0.000  0.00  0.00    -0.133 F 
ENDROOT
BRANCH   1   4
ATOM      4  O   UNL A   1      -1.000  -1.000   0.000  0.00  0.00    -0.281 OA
BRANCH   4   6
ATOM      5  C   UNL A   1      -3.110  -0.029  -0.660  0.00  0.00    -0.038 C 
ATOM      6  C   UNL A   1      -2.194  -1.246  -0.741  0.00  0.00    +0.065 C 
ATOM      7  C   UNL A   1      -2.910  -2.471  -0.172  0.00  0.00    -0.038 C 
ENDBRANCH   4   6
ENDBRANCH   1   4
BRANCH   1   8
ATOM      8  O   UNL A   1       0.000   0.000   0.000  0.00  0.00    -0.281 OA
BRANCH   8   9
ATOM      9  C   UNL A   1       0.264   1.175  -0.747  0.00  0.00    +0.065 C 
ATOM     10  C   UNL A   1       1.750   1.328  -1.072  0.00  0.00    -0.038 C 
ATOM     11  C   UNL A   1      -0.219   2.371   0.069  0.00  0.00    -0.038 C 
ENDBRANCH   8   9
ENDBRANCH   1   8
TORSDOF 4
