MODEL 1
REMARK VINA RESULT:    -4.995      0.000      0.000
REMARK INTER + INTRA:          -6.521
REMARK INTER:                  -6.163
REMARK INTRA:                  -0.357
REMARK UNBOUND:                -0.357
REMARK  Name = cpd366.pdb
REMARK  8 active torsions:
REMARK  status: ('A' for Active; 'I' for Inactive)
REMARK    1  A    between atoms: C_1  and  C_2
REMARK    2  A    between atoms: C_2  and  C_3
REMARK    3  A    between atoms: C_2  and  O_4
REMARK    4  A    between atoms: O_4  and  P_5
REMARK    5  A    between atoms: P_5  and  O_8
REMARK    6  A    between atoms: O_8  and  C_9
REMARK    7  A    between atoms: C_9  and  C_10
REMARK    8  A    between atoms: C_9  and  C_11
REMARK                            x       y       z     vdW  Elec       q    Type
REMARK                         _______ _______ _______ _____ _____    ______ ____
ROOT
ATOM      1  P   UNL A   1      40.817 -36.268 -33.084  0.00  0.00    +0.516 P 
ATOM      2  O   UNL A   1      40.234 -36.096 -33.878  0.00  0.00    -0.223 OA
ATOM      3  F   UNL A   1      41.415 -36.840 -33.645  0.00  0.00    -0.133 F 
ENDROOT
BRANCH   1   4
ATOM      4  O   UNL A   1      40.220 -35.696 -32.522  0.00  0.00    -0.281 OA
BRANCH   4   6
ATOM      5  C   UNL A   1      38.845 -33.799 -31.938  0.00  0.00    -0.038 C 
ATOM      6  C   UNL A   1      38.883 -35.296 -32.225  0.00  0.00    +0.065 C 
ATOM      7  C   UNL A   1      38.373 -36.069 -31.008  0.00  0.00    -0.038 C 
ENDBRANCH   4   6
ENDBRANCH   1   4
BRANCH   1   8
ATOM      8  O   UNL A   1      41.400 -36.439 -32.289  0.00  0.00    -0.281 OA
BRANCH   8   9
ATOM      9  C   UNL A   1      42.337 -37.315 -31.686  0.00  0.00    +0.065 C 
ATOM     10  C   UNL A   1      41.708 -38.149 -30.570  0.00  0.00    -0.038 C 
ATOM     11  C   UNL A   1      43.480 -36.471 -31.129  0.00  0.00    -0.038 C 
ENDBRANCH   8   9
ENDBRANCH   1   8
TORSDOF 4
ENDMDL
MODEL 2
REMARK VINA RESULT:    -4.881      0.628      3.739
REMARK INTER + INTRA:          -6.380
REMARK INTER:                  -6.060
REMARK INTRA:                  -0.320
REMARK UNBOUND:                -0.357
REMARK  Name = cpd366.pdb
REMARK  8 active torsions:
REMARK  status: ('A' for Active; 'I' for Inactive)
REMARK    1  A    between atoms: C_1  and  C_2
REMARK    2  A    between atoms: C_2  and  C_3
REMARK    3  A    between atoms: C_2  and  O_4
REMARK    4  A    between atoms: O_4  and  P_5
REMARK    5  A    between atoms: P_5  and  O_8
REMARK    6  A    between atoms: O_8  and  C_9
REMARK    7  A    between atoms: C_9  and  C_10
REMARK    8  A    between atoms: C_9  and  C_11
REMARK                            x       y       z     vdW  Elec       q    Type
REMARK                         _______ _______ _______ _____ _____    ______ ____
ROOT
ATOM      1  P   UNL A   1      40.693 -36.214 -33.065  0.00  0.00    +0.516 P 
ATOM      2  O   UNL A   1      41.283 -36.778 -33.644  0.00  0.00    -0.223 OA
ATOM      3  F   UNL A   1      40.055 -36.100 -33.827  0.00  0.00    -0.133 F 
ENDROOT
BRANCH   1   4
ATOM      4  O   UNL A   1      41.331 -36.327 -32.304  0.00  0.00    -0.281 OA
BRANCH   4   6
ATOM      5  C   UNL A   1      41.768 -38.038 -30.657  0.00  0.00    -0.038 C 
ATOM      6  C   UNL A   1      42.363 -37.119 -31.719  0.00  0.00    +0.065 C 
ATOM      7  C   UNL A   1      43.414 -36.209 -31.084  0.00  0.00    -0.038 C 
ENDBRANCH   4   6
ENDBRANCH   1   4
BRANCH   1   8
ATOM      8  O   UNL A   1      40.103 -35.650 -32.487  0.00  0.00    -0.281 OA
BRANCH   8   9
ATOM      9  C   UNL A   1      38.789 -35.169 -32.265  0.00  0.00    +0.065 C 
ATOM     10  C   UNL A   1      38.769 -33.670 -31.965  0.00  0.00    -0.038 C 
ATOM     11  C   UNL A   1      38.195 -35.945 -31.092  0.00  0.00    -0.038 C 
ENDBRANCH   8   9
ENDBRANCH   1   8
TORSDOF 4
ENDMDL
MODEL 3
REMARK VINA RESULT:    -4.818      7.293      8.265
REMARK INTER + INTRA:          -6.302
REMARK INTER:                  -6.001
REMARK INTRA:                  -0.300
REMARK UNBOUND:                -0.357
REMARK  Name = cpd366.pdb
REMARK  8 active torsions:
REMARK  status: ('A' for Active; 'I' for Inactive)
REMARK    1  A    between atoms: C_1  and  C_2
REMARK    2  A    between atoms: C_2  and  C_3
REMARK    3  A    between atoms: C_2  and  O_4
REMARK    4  A    between atoms: O_4  and  P_5
REMARK    5  A    between atoms: P_5  and  O_8
REMARK    6  A    between atoms: O_8  and  C_9
REMARK    7  A    between atoms: C_9  and  C_10
REMARK    8  A    between atoms: C_9  and  C_11
REMARK                            x       y       z     vdW  Elec       q    Type
REMARK                         _______ _______ _______ _____ _____    ______ ____
ROOT
ATOM      1  P   UNL A   1      46.168 -39.256 -29.360  0.00  0.00    +0.516 P 
ATOM      2  O   UNL A   1      46.259 -38.260 -29.371  0.00  0.00    -0.223 OA
ATOM      3  F   UNL A   1      45.173 -39.166 -29.403  0.00  0.00    -0.133 F 
ENDROOT
BRANCH   1   4
ATOM      4  O   UNL A   1      47.163 -39.347 -29.317  0.00  0.00    -0.281 OA
BRANCH   4   6
ATOM      5  C   UNL A   1      49.073 -39.764 -30.734  0.00  0.00    -0.038 C 
ATOM      6  C   UNL A   1      48.428 -38.825 -29.720  0.00  0.00    +0.065 C 
ATOM      7  C   UNL A   1      49.338 -38.679 -28.500  0.00  0.00    -0.038 C 
ENDBRANCH   4   6
ENDBRANCH   1   4
BRANCH   1   8
ATOM      8  O   UNL A   1      46.077 -40.252 -29.349  0.00  0.00    -0.281 OA
BRANCH   8   9
ATOM      9  C   UNL A   1      45.262 -41.361 -29.687  0.00  0.00    +0.065 C 
ATOM     10  C   UNL A   1      45.096 -42.331 -28.517  0.00  0.00    -0.038 C 
ATOM     11  C   UNL A   1      45.906 -42.076 -30.872  0.00  0.00    -0.038 C 
ENDBRANCH   8   9
ENDBRANCH   1   8
TORSDOF 4
ENDMDL
MODEL 4
REMARK VINA RESULT:    -4.817      7.167      7.964
REMARK INTER + INTRA:          -6.300
REMARK INTER:                  -6.102
REMARK INTRA:                  -0.199
REMARK UNBOUND:                -0.357
REMARK  Name = cpd366.pdb
REMARK  8 active torsions:
REMARK  status: ('A' for Active; 'I' for Inactive)
REMARK    1  A    between atoms: C_1  and  C_2
REMARK    2  A    between atoms: C_2  and  C_3
REMARK    3  A    between atoms: C_2  and  O_4
REMARK    4  A    between atoms: O_4  and  P_5
REMARK    5  A    between atoms: P_5  and  O_8
REMARK    6  A    between atoms: O_8  and  C_9
REMARK    7  A    between atoms: C_9  and  C_10
REMARK    8  A    between atoms: C_9  and  C_11
REMARK                            x       y       z     vdW  Elec       q    Type
REMARK                         _______ _______ _______ _____ _____    ______ ____
ROOT
ATOM      1  P   UNL A   1      46.039 -39.209 -29.013  0.00  0.00    +0.516 P 
ATOM      2  O   UNL A   1      45.046 -39.091 -28.997  0.00  0.00    -0.223 OA
ATOM      3  F   UNL A   1      46.158 -38.233 -28.833  0.00  0.00    -0.133 F 
ENDROOT
BRANCH   1   4
ATOM      4  O   UNL A   1      45.919 -40.186 -29.194  0.00  0.00    -0.281 OA
BRANCH   4   6
ATOM      5  C   UNL A   1      45.067 -42.273 -28.330  0.00  0.00    -0.038 C 
ATOM      6  C   UNL A   1      45.004 -41.248 -29.457  0.00  0.00    +0.065 C 
ATOM      7  C   UNL A   1      45.361 -41.917 -30.785  0.00  0.00    -0.038 C 
ENDBRANCH   4   6
ENDBRANCH   1   4
BRANCH   1   8
ATOM      8  O   UNL A   1      47.031 -39.328 -29.030  0.00  0.00    -0.281 OA
BRANCH   8   9
ATOM      9  C   UNL A   1      48.247 -38.966 -29.662  0.00  0.00    +0.065 C 
ATOM     10  C   UNL A   1      48.738 -40.047 -30.625  0.00  0.00    -0.038 C 
ATOM     11  C   UNL A   1      49.290 -38.722 -28.574  0.00  0.00    -0.038 C 
ENDBRANCH   8   9
ENDBRANCH   1   8
TORSDOF 4
ENDMDL
MODEL 5
REMARK VINA RESULT:    -4.449     34.451     35.434
REMARK INTER + INTRA:          -5.846
REMARK INTER:                  -5.635
REMARK INTRA:                  -0.211
REMARK UNBOUND:                -0.357
REMARK  Name = cpd366.pdb
REMARK  8 active torsions:
REMARK  status: ('A' for Active; 'I' for Inactive)
REMARK    1  A    between atoms: C_1  and  C_2
REMARK    2  A    between atoms: C_2  and  C_3
REMARK    3  A    between atoms: C_2  and  O_4
REMARK    4  A    between atoms: O_4  and  P_5
REMARK    5  A    between atoms: P_5  and  O_8
REMARK    6  A    between atoms: O_8  and  C_9
REMARK    7  A    between atoms: C_9  and  C_10
REMARK    8  A    between atoms: C_9  and  C_11
REMARK                            x       y       z     vdW  Elec       q    Type
REMARK                         _______ _______ _______ _____ _____    ______ ____
ROOT
ATOM      1  P   UNL A   1      62.267 -25.331  -7.239  0.00  0.00    +0.516 P 
ATOM      2  O   UNL A   1      61.328 -25.153  -7.535  0.00  0.00    -0.223 OA
ATOM      3  F   UNL A   1      61.986 -26.225  -6.887  0.00  0.00    -0.133 F 
ENDROOT
BRANCH   1   4
ATOM      4  O   UNL A   1      62.547 -24.438  -7.590  0.00  0.00    -0.281 OA
BRANCH   4   6
ATOM      5  C   UNL A   1      63.862 -24.339  -9.612  0.00  0.00    -0.038 C 
ATOM      6  C   UNL A   1      62.824 -23.641  -8.740  0.00  0.00    +0.065 C 
ATOM      7  C   UNL A   1      63.351 -22.274  -8.303  0.00  0.00    -0.038 C 
ENDBRANCH   4   6
ENDBRANCH   1   4
BRANCH   1   8
ATOM      8  O   UNL A   1      63.205 -25.510  -6.942  0.00  0.00    -0.281 OA
BRANCH   8   9
ATOM      9  C   UNL A   1      64.034 -26.155  -5.991  0.00  0.00    +0.065 C 
ATOM     10  C   UNL A   1      64.524 -25.194  -4.908  0.00  0.00    -0.038 C 
ATOM     11  C   UNL A   1      65.223 -26.757  -6.734  0.00  0.00    -0.038 C 
ENDBRANCH   8   9
ENDBRANCH   1   8
TORSDOF 4
ENDMDL
MODEL 6
REMARK VINA RESULT:    -4.394     34.509     35.475
REMARK INTER + INTRA:          -5.779
REMARK INTER:                  -5.577
REMARK INTRA:                  -0.202
REMARK UNBOUND:                -0.357
REMARK  Name = cpd366.pdb
REMARK  8 active torsions:
REMARK  status: ('A' for Active; 'I' for Inactive)
REMARK    1  A    between atoms: C_1  and  C_2
REMARK    2  A    between atoms: C_2  and  C_3
REMARK    3  A    between atoms: C_2  and  O_4
REMARK    4  A    between atoms: O_4  and  P_5
REMARK    5  A    between atoms: P_5  and  O_8
REMARK    6  A    between atoms: O_8  and  C_9
REMARK    7  A    between atoms: C_9  and  C_10
REMARK    8  A    between atoms: C_9  and  C_11
REMARK                            x       y       z     vdW  Elec       q    Type
REMARK                         _______ _______ _______ _____ _____    ______ ____
ROOT
ATOM      1  P   UNL A   1      62.224 -25.055  -7.440  0.00  0.00    +0.516 P 
ATOM      2  O   UNL A   1      61.710 -25.822  -7.057  0.00  0.00    -0.223 OA
ATOM      3  F   UNL A   1      61.553 -24.973  -8.176  0.00  0.00    -0.133 F 
ENDROOT
BRANCH   1   4
ATOM      4  O   UNL A   1      62.895 -25.137  -6.703  0.00  0.00    -0.281 OA
BRANCH   4   6
ATOM      5  C   UNL A   1      64.783 -26.638  -6.825  0.00  0.00    -0.038 C 
ATOM      6  C   UNL A   1      64.270 -25.282  -6.351  0.00  0.00    +0.065 C 
ATOM      7  C   UNL A   1      64.428 -25.171  -4.835  0.00  0.00    -0.038 C 
ENDBRANCH   4   6
ENDBRANCH   1   4
BRANCH   1   8
ATOM      8  O   UNL A   1      62.738 -24.288  -7.823  0.00  0.00    -0.281 OA
BRANCH   8   9
ATOM      9  C   UNL A   1      62.993 -23.502  -8.974  0.00  0.00    +0.065 C 
ATOM     10  C   UNL A   1      64.083 -24.110  -9.856  0.00  0.00    -0.038 C 
ATOM     11  C   UNL A   1      63.412 -22.109  -8.511  0.00  0.00    -0.038 C 
ENDBRANCH   8   9
ENDBRANCH   1   8
TORSDOF 4
ENDMDL
MODEL 7
REMARK VINA RESULT:    -4.298     35.367     36.665
REMARK INTER + INTRA:          -5.660
REMARK INTER:                  -5.539
REMARK INTRA:                  -0.121
REMARK UNBOUND:                -0.357
REMARK  Name = cpd366.pdb
REMARK  8 active torsions:
REMARK  status: ('A' for Active; 'I' for Inactive)
REMARK    1  A    between atoms: C_1  and  C_2
REMARK    2  A    between atoms: C_2  and  C_3
REMARK    3  A    between atoms: C_2  and  O_4
REMARK    4  A    between atoms: O_4  and  P_5
REMARK    5  A    between atoms: P_5  and  O_8
REMARK    6  A    between atoms: O_8  and  C_9
REMARK    7  A    between atoms: C_9  and  C_10
REMARK    8  A    between atoms: C_9  and  C_11
REMARK                            x       y       z     vdW  Elec       q    Type
REMARK                         _______ _______ _______ _____ _____    ______ ____
ROOT
ATOM      1  P   UNL A   1      64.884 -25.548  -6.873  0.00  0.00    +0.516 P 
ATOM      2  O   UNL A   1      65.351 -26.111  -7.555  0.00  0.00    -0.223 OA
ATOM      3  F   UNL A   1      65.378 -24.742  -7.199  0.00  0.00    -0.133 F 
ENDROOT
BRANCH   1   4
ATOM      4  O   UNL A   1      64.389 -26.353  -6.547  0.00  0.00    -0.281 OA
BRANCH   4   6
ATOM      5  C   UNL A   1      63.265 -28.449  -6.127  0.00  0.00    -0.038 C 
ATOM      6  C   UNL A   1      63.122 -26.935  -6.244  0.00  0.00    +0.065 C 
ATOM      7  C   UNL A   1      62.122 -26.594  -7.349  0.00  0.00    -0.038 C 
ENDBRANCH   4   6
ENDBRANCH   1   4
BRANCH   1   8
ATOM      8  O   UNL A   1      64.416 -24.985  -6.191  0.00  0.00    -0.281 OA
BRANCH   8   9
ATOM      9  C   UNL A   1      64.498 -23.846  -5.352  0.00  0.00    +0.065 C 
ATOM     10  C   UNL A   1      64.926 -24.209  -3.930  0.00  0.00    -0.038 C 
ATOM     11  C   UNL A   1      63.127 -23.176  -5.331  0.00  0.00    -0.038 C 
ENDBRANCH   8   9
ENDBRANCH   1   8
TORSDOF 4
ENDMDL
MODEL 8
REMARK VINA RESULT:    -4.253      2.256      3.694
REMARK INTER + INTRA:          -5.605
REMARK INTER:                  -5.429
REMARK INTRA:                  -0.176
REMARK UNBOUND:                -0.357
REMARK  Name = cpd366.pdb
REMARK  8 active torsions:
REMARK  status: ('A' for Active; 'I' for Inactive)
REMARK    1  A    between atoms: C_1  and  C_2
REMARK    2  A    between atoms: C_2  and  C_3
REMARK    3  A    between atoms: C_2  and  O_4
REMARK    4  A    between atoms: O_4  and  P_5
REMARK    5  A    between atoms: P_5  and  O_8
REMARK    6  A    between atoms: O_8  and  C_9
REMARK    7  A    between atoms: C_9  and  C_10
REMARK    8  A    between atoms: C_9  and  C_11
REMARK                            x       y       z     vdW  Elec       q    Type
REMARK                         _______ _______ _______ _____ _____    ______ ____
ROOT
ATOM      1  P   UNL A   1      39.353 -35.911 -31.723  0.00  0.00    +0.516 P 
ATOM      2  O   UNL A   1      39.744 -35.163 -32.260  0.00  0.00    -0.223 OA
ATOM      3  F   UNL A   1      38.477 -35.429 -31.691  0.00  0.00    -0.133 F 
ENDROOT
BRANCH   1   4
ATOM      4  O   UNL A   1      40.228 -36.392 -31.755  0.00  0.00    -0.281 OA
BRANCH   4   6
ATOM      5  C   UNL A   1      42.173 -37.617 -32.497  0.00  0.00    -0.038 C 
ATOM      6  C   UNL A   1      41.638 -36.296 -31.954  0.00  0.00    +0.065 C 
ATOM      7  C   UNL A   1      42.324 -35.966 -30.628  0.00  0.00    -0.038 C 
ENDBRANCH   4   6
ENDBRANCH   1   4
BRANCH   1   8
ATOM      8  O   UNL A   1      38.961 -36.658 -31.186  0.00  0.00    -0.281 OA
BRANCH   8   9
ATOM      9  C   UNL A   1      38.393 -37.042 -29.946  0.00  0.00    +0.065 C 
ATOM     10  C   UNL A   1      39.382 -37.817 -29.076  0.00  0.00    -0.038 C 
ATOM     11  C   UNL A   1      37.166 -37.902 -30.236  0.00  0.00    -0.038 C 
ENDBRANCH   8   9
ENDBRANCH   1   8
TORSDOF 4
ENDMDL
MODEL 9
REMARK VINA RESULT:    -4.248      2.117      2.524
REMARK INTER + INTRA:          -5.598
REMARK INTER:                  -5.474
REMARK INTRA:                  -0.124
REMARK UNBOUND:                -0.357
REMARK  Name = cpd366.pdb
REMARK  8 active torsions:
REMARK  status: ('A' for Active; 'I' for Inactive)
REMARK    1  A    between atoms: C_1  and  C_2
REMARK    2  A    between atoms: C_2  and  C_3
REMARK    3  A    between atoms: C_2  and  O_4
REMARK    4  A    between atoms: O_4  and  P_5
REMARK    5  A    between atoms: P_5  and  O_8
REMARK    6  A    between atoms: O_8  and  C_9
REMARK    7  A    between atoms: C_9  and  C_10
REMARK    8  A    between atoms: C_9  and  C_11
REMARK                            x       y       z     vdW  Elec       q    Type
REMARK                         _______ _______ _______ _____ _____    ______ ____
ROOT
ATOM      1  P   UNL A   1      39.340 -35.975 -31.810  0.00  0.00    +0.516 P 
ATOM      2  O   UNL A   1      38.449 -35.524 -31.863  0.00  0.00    -0.223 OA
ATOM      3  F   UNL A   1      39.734 -35.266 -32.395  0.00  0.00    -0.133 F 
ENDROOT
BRANCH   1   4
ATOM      4  O   UNL A   1      38.946 -36.684 -31.225  0.00  0.00    -0.281 OA
BRANCH   4   6
ATOM      5  C   UNL A   1      39.488 -37.798 -29.152  0.00  0.00    -0.038 C 
ATOM      6  C   UNL A   1      38.435 -37.021 -29.936  0.00  0.00    +0.065 C 
ATOM      7  C   UNL A   1      37.173 -37.870 -30.088  0.00  0.00    -0.038 C 
ENDBRANCH   4   6
ENDBRANCH   1   4
BRANCH   1   8
ATOM      8  O   UNL A   1      40.230 -36.427 -31.757  0.00  0.00    -0.281 OA
BRANCH   8   9
ATOM      9  C   UNL A   1      41.625 -36.303 -31.977  0.00  0.00    +0.065 C 
ATOM     10  C   UNL A   1      42.259 -37.627 -32.405  0.00  0.00    -0.038 C 
ATOM     11  C   UNL A   1      42.265 -35.812 -30.681  0.00  0.00    -0.038 C 
ENDBRANCH   8   9
ENDBRANCH   1   8
TORSDOF 4
ENDMDL
MODEL 10
REMARK VINA RESULT:    -4.190      2.444      3.355
REMARK INTER + INTRA:          -5.527
REMARK INTER:                  -5.447
REMARK INTRA:                  -0.079
REMARK UNBOUND:                -0.357
REMARK  Name = cpd366.pdb
REMARK  8 active torsions:
REMARK  status: ('A' for Active; 'I' for Inactive)
REMARK    1  A    between atoms: C_1  and  C_2
REMARK    2  A    between atoms: C_2  and  C_3
REMARK    3  A    between atoms: C_2  and  O_4
REMARK    4  A    between atoms: O_4  and  P_5
REMARK    5  A    between atoms: P_5  and  O_8
REMARK    6  A    between atoms: O_8  and  C_9
REMARK    7  A    between atoms: C_9  and  C_10
REMARK    8  A    between atoms: C_9  and  C_11
REMARK                            x       y       z     vdW  Elec       q    Type
REMARK                         _______ _______ _______ _____ _____    ______ ____
ROOT
ATOM      1  P   UNL A   1      40.637 -37.172 -30.279  0.00  0.00    +0.516 P 
ATOM      2  O   UNL A   1      40.761 -38.054 -29.824  0.00  0.00    -0.223 OA
ATOM      3  F   UNL A   1      41.570 -37.224 -30.635  0.00  0.00    -0.133 F 
ENDROOT
BRANCH   1   4
ATOM      4  O   UNL A   1      39.703 -37.119 -29.924  0.00  0.00    -0.281 OA
BRANCH   4   6
ATOM      5  C   UNL A   1      37.430 -36.907 -30.709  0.00  0.00    -0.038 C 
ATOM      6  C   UNL A   1      38.411 -37.720 -29.870  0.00  0.00    +0.065 C 
ATOM      7  C   UNL A   1      37.929 -37.776 -28.420  0.00  0.00    -0.038 C 
ENDBRANCH   4   6
ENDBRANCH   1   4
BRANCH   1   8
ATOM      8  O   UNL A   1      40.513 -36.290 -30.734  0.00  0.00    -0.281 OA
BRANCH   8   9
ATOM      9  C   UNL A   1      40.946 -35.436 -31.779  0.00  0.00    +0.065 C 
ATOM     10  C   UNL A   1      40.396 -34.017 -31.626  0.00  0.00    -0.038 C 
ATOM     11  C   UNL A   1      40.483 -36.037 -33.103  0.00  0.00    -0.038 C 
ENDBRANCH   8   9
ENDBRANCH   1   8
TORSDOF 4
ENDMDL
MODEL 11
REMARK VINA RESULT:    -4.122     18.360     18.917
REMARK INTER + INTRA:          -5.443
REMARK INTER:                  -5.265
REMARK INTRA:                  -0.179
REMARK UNBOUND:                -0.357
REMARK  Name = cpd366.pdb
REMARK  8 active torsions:
REMARK  status: ('A' for Active; 'I' for Inactive)
REMARK    1  A    between atoms: C_1  and  C_2
REMARK    2  A    between atoms: C_2  and  C_3
REMARK    3  A    between atoms: C_2  and  O_4
REMARK    4  A    between atoms: O_4  and  P_5
REMARK    5  A    between atoms: P_5  and  O_8
REMARK    6  A    between atoms: O_8  and  C_9
REMARK    7  A    between atoms: C_9  and  C_10
REMARK    8  A    between atoms: C_9  and  C_11
REMARK                            x       y       z     vdW  Elec       q    Type
REMARK                         _______ _______ _______ _____ _____    ______ ____
ROOT
ATOM      1  P   UNL A   1      47.286 -20.293 -41.735  0.00  0.00    +0.516 P 
ATOM      2  O   UNL A   1      47.240 -19.294 -41.741  0.00  0.00    -0.223 OA
ATOM      3  F   UNL A   1      48.265 -20.249 -41.934  0.00  0.00    -0.133 F 
ENDROOT
BRANCH   1   4
ATOM      4  O   UNL A   1      46.307 -20.337 -41.536  0.00  0.00    -0.281 OA
BRANCH   4   6
ATOM      5  C   UNL A   1      44.394 -19.975 -42.963  0.00  0.00    -0.038 C 
ATOM      6  C   UNL A   1      45.036 -20.868 -41.907  0.00  0.00    +0.065 C 
ATOM      7  C   UNL A   1      44.132 -20.947 -40.677  0.00  0.00    -0.038 C 
ENDBRANCH   4   6
ENDBRANCH   1   4
BRANCH   1   8
ATOM      8  O   UNL A   1      47.333 -21.292 -41.729  0.00  0.00    -0.281 OA
BRANCH   8   9
ATOM      9  C   UNL A   1      48.176 -22.429 -41.658  0.00  0.00    +0.065 C 
ATOM     10  C   UNL A   1      47.584 -23.630 -42.395  0.00  0.00    -0.038 C 
ATOM     11  C   UNL A   1      48.385 -22.769 -40.185  0.00  0.00    -0.038 C 
ENDBRANCH   8   9
ENDBRANCH   1   8
TORSDOF 4
ENDMDL
MODEL 12
REMARK VINA RESULT:    -4.107     35.291     36.631
REMARK INTER + INTRA:          -5.425
REMARK INTER:                  -5.101
REMARK INTRA:                  -0.324
REMARK UNBOUND:                -0.357
REMARK  Name = cpd366.pdb
REMARK  8 active torsions:
REMARK  status: ('A' for Active; 'I' for Inactive)
REMARK    1  A    between atoms: C_1  and  C_2
REMARK    2  A    between atoms: C_2  and  C_3
REMARK    3  A    between atoms: C_2  and  O_4
REMARK    4  A    between atoms: O_4  and  P_5
REMARK    5  A    between atoms: P_5  and  O_8
REMARK    6  A    between atoms: O_8  and  C_9
REMARK    7  A    between atoms: C_9  and  C_10
REMARK    8  A    between atoms: C_9  and  C_11
REMARK                            x       y       z     vdW  Elec       q    Type
REMARK                         _______ _______ _______ _____ _____    ______ ____
ROOT
ATOM      1  P   UNL A   1      64.487 -25.863  -6.609  0.00  0.00    +0.516 P 
ATOM      2  O   UNL A   1      65.104 -26.378  -6.014  0.00  0.00    -0.223 OA
ATOM      3  F   UNL A   1      64.580 -26.567  -7.313  0.00  0.00    -0.133 F 
ENDROOT
BRANCH   1   4
ATOM      4  O   UNL A   1      64.395 -25.160  -5.905  0.00  0.00    -0.281 OA
BRANCH   4   6
ATOM      5  C   UNL A   1      64.099 -24.219  -3.701  0.00  0.00    -0.038 C 
ATOM      6  C   UNL A   1      65.041 -24.397  -4.887  0.00  0.00    +0.065 C 
ATOM      7  C   UNL A   1      65.438 -23.029  -5.442  0.00  0.00    -0.038 C 
ENDBRANCH   4   6
ENDBRANCH   1   4
BRANCH   1   8
ATOM      8  O   UNL A   1      63.871 -25.349  -7.205  0.00  0.00    -0.281 OA
BRANCH   8   9
ATOM      9  C   UNL A   1      63.379 -25.180  -8.523  0.00  0.00    +0.065 C 
ATOM     10  C   UNL A   1      64.166 -24.125  -9.300  0.00  0.00    -0.038 C 
ATOM     11  C   UNL A   1      61.910 -24.775  -8.430  0.00  0.00    -0.038 C 
ENDBRANCH   8   9
ENDBRANCH   1   8
TORSDOF 4
ENDMDL
MODEL 13
REMARK VINA RESULT:    -4.083     21.310     22.311
REMARK INTER + INTRA:          -5.395
REMARK INTER:                  -5.114
REMARK INTRA:                  -0.281
REMARK UNBOUND:                -0.357
REMARK  Name = cpd366.pdb
REMARK  8 active torsions:
REMARK  status: ('A' for Active; 'I' for Inactive)
REMARK    1  A    between atoms: C_1  and  C_2
REMARK    2  A    between atoms: C_2  and  C_3
REMARK    3  A    between atoms: C_2  and  O_4
REMARK    4  A    between atoms: O_4  and  P_5
REMARK    5  A    between atoms: P_5  and  O_8
REMARK    6  A    between atoms: O_8  and  C_9
REMARK    7  A    between atoms: C_9  and  C_10
REMARK    8  A    between atoms: C_9  and  C_11
REMARK                            x       y       z     vdW  Elec       q    Type
REMARK                         _______ _______ _______ _____ _____    ______ ____
ROOT
ATOM      1  P   UNL A   1      56.507 -33.912 -47.866  0.00  0.00    +0.516 P 
ATOM      2  O   UNL A   1      57.278 -33.496 -48.348  0.00  0.00    -0.223 OA
ATOM      3  F   UNL A   1      56.891 -33.611 -46.993  0.00  0.00    -0.133 F 
ENDROOT
BRANCH   1   4
ATOM      4  O   UNL A   1      56.123 -34.213 -48.739  0.00  0.00    -0.281 OA
BRANCH   4   6
ATOM      5  C   UNL A   1      55.285 -33.669 -50.937  0.00  0.00    -0.038 C 
ATOM      6  C   UNL A   1      56.344 -34.417 -50.134  0.00  0.00    +0.065 C 
ATOM      7  C   UNL A   1      56.276 -35.910 -50.453  0.00  0.00    -0.038 C 
ENDBRANCH   4   6
ENDBRANCH   1   4
BRANCH   1   8
ATOM      8  O   UNL A   1      55.736 -34.329 -47.384  0.00  0.00    -0.281 OA
BRANCH   8   9
ATOM      9  C   UNL A   1      55.334 -35.167 -46.314  0.00  0.00    +0.065 C 
ATOM     10  C   UNL A   1      55.049 -36.595 -46.780  0.00  0.00    -0.038 C 
ATOM     11  C   UNL A   1      54.082 -34.562 -45.686  0.00  0.00    -0.038 C 
ENDBRANCH   8   9
ENDBRANCH   1   8
TORSDOF 4
ENDMDL
MODEL 14
REMARK VINA RESULT:    -4.035     18.474     19.276
REMARK INTER + INTRA:          -5.336
REMARK INTER:                  -5.113
REMARK INTRA:                  -0.223
REMARK UNBOUND:                -0.357
REMARK  Name = cpd366.pdb
REMARK  8 active torsions:
REMARK  status: ('A' for Active; 'I' for Inactive)
REMARK    1  A    between atoms: C_1  and  C_2
REMARK    2  A    between atoms: C_2  and  C_3
REMARK    3  A    between atoms: C_2  and  O_4
REMARK    4  A    between atoms: O_4  and  P_5
REMARK    5  A    between atoms: P_5  and  O_8
REMARK    6  A    between atoms: O_8  and  C_9
REMARK    7  A    between atoms: C_9  and  C_10
REMARK    8  A    between atoms: C_9  and  C_11
REMARK                            x       y       z     vdW  Elec       q    Type
REMARK                         _______ _______ _______ _____ _____    ______ ____
ROOT
ATOM      1  P   UNL A   1      47.213 -20.195 -41.790  0.00  0.00    +0.516 P 
ATOM      2  O   UNL A   1      48.188 -20.027 -41.938  0.00  0.00    -0.223 OA
ATOM      3  F   UNL A   1      47.053 -19.211 -41.722  0.00  0.00    -0.133 F 
ENDROOT
BRANCH   1   4
ATOM      4  O   UNL A   1      47.373 -21.180 -41.859  0.00  0.00    -0.281 OA
BRANCH   4   6
ATOM      5  C   UNL A   1      48.204 -22.859 -40.335  0.00  0.00    -0.038 C 
ATOM      6  C   UNL A   1      47.105 -22.474 -41.320  0.00  0.00    +0.065 C 
ATOM      7  C   UNL A   1      47.041 -23.500 -42.451  0.00  0.00    -0.038 C 
ENDBRANCH   4   6
ENDBRANCH   1   4
BRANCH   1   8
ATOM      8  O   UNL A   1      46.239 -20.364 -41.643  0.00  0.00    -0.281 OA
BRANCH   8   9
ATOM      9  C   UNL A   1      44.942 -19.795 -41.595  0.00  0.00    +0.065 C 
ATOM     10  C   UNL A   1      44.070 -20.440 -40.518  0.00  0.00    -0.038 C 
ATOM     11  C   UNL A   1      44.297 -19.975 -42.967  0.00  0.00    -0.038 C 
ENDBRANCH   8   9
ENDBRANCH   1   8
TORSDOF 4
ENDMDL
MODEL 15
REMARK VINA RESULT:    -3.885     20.254     21.272
REMARK INTER + INTRA:          -5.151
REMARK INTER:                  -4.793
REMARK INTRA:                  -0.358
REMARK UNBOUND:                -0.357
REMARK  Name = cpd366.pdb
REMARK  8 active torsions:
REMARK  status: ('A' for Active; 'I' for Inactive)
REMARK    1  A    between atoms: C_1  and  C_2
REMARK    2  A    between atoms: C_2  and  C_3
REMARK    3  A    between atoms: C_2  and  O_4
REMARK    4  A    between atoms: O_4  and  P_5
REMARK    5  A    between atoms: P_5  and  O_8
REMARK    6  A    between atoms: O_8  and  C_9
REMARK    7  A    between atoms: C_9  and  C_10
REMARK    8  A    between atoms: C_9  and  C_11
REMARK                            x       y       z     vdW  Elec       q    Type
REMARK                         _______ _______ _______ _____ _____    ______ ____
ROOT
ATOM      1  P   UNL A   1      55.151 -36.662 -47.596  0.00  0.00    +0.516 P 
ATOM      2  O   UNL A   1      55.208 -37.310 -46.837  0.00  0.00    -0.223 OA
ATOM      3  F   UNL A   1      55.773 -37.233 -48.131  0.00  0.00    -0.133 F 
ENDROOT
BRANCH   1   4
ATOM      4  O   UNL A   1      54.529 -36.090 -47.062  0.00  0.00    -0.281 OA
BRANCH   4   6
ATOM      5  C   UNL A   1      52.784 -35.097 -45.720  0.00  0.00    -0.038 C 
ATOM      6  C   UNL A   1      54.261 -35.467 -45.806  0.00  0.00    +0.065 C 
ATOM      7  C   UNL A   1      55.119 -34.210 -45.661  0.00  0.00    -0.038 C 
ENDBRANCH   4   6
ENDBRANCH   1   4
BRANCH   1   8
ATOM      8  O   UNL A   1      55.093 -36.013 -48.356  0.00  0.00    -0.281 OA
BRANCH   8   9
ATOM      9  C   UNL A   1      55.762 -35.444 -49.468  0.00  0.00    +0.065 C 
ATOM     10  C   UNL A   1      56.384 -34.088 -49.132  0.00  0.00    -0.038 C 
ATOM     11  C   UNL A   1      54.749 -35.289 -50.599  0.00  0.00    -0.038 C 
ENDBRANCH   8   9
ENDBRANCH   1   8
TORSDOF 4
ENDMDL
MODEL 16
REMARK VINA RESULT:    -3.841     17.619     18.095
REMARK INTER + INTRA:          -5.096
REMARK INTER:                  -5.017
REMARK INTRA:                  -0.079
REMARK UNBOUND:                -0.357
REMARK  Name = cpd366.pdb
REMARK  8 active torsions:
REMARK  status: ('A' for Active; 'I' for Inactive)
REMARK    1  A    between atoms: C_1  and  C_2
REMARK    2  A    between atoms: C_2  and  C_3
REMARK    3  A    between atoms: C_2  and  O_4
REMARK    4  A    between atoms: O_4  and  P_5
REMARK    5  A    between atoms: P_5  and  O_8
REMARK    6  A    between atoms: O_8  and  C_9
REMARK    7  A    between atoms: C_9  and  C_10
REMARK    8  A    between atoms: C_9  and  C_11
REMARK                            x       y       z     vdW  Elec       q    Type
REMARK                         _______ _______ _______ _____ _____    ______ ____
ROOT
ATOM      1  P   UNL A   1      45.629 -21.952 -42.137  0.00  0.00    +0.516 P 
ATOM      2  O   UNL A   1      44.868 -21.382 -42.446  0.00  0.00    -0.223 OA
ATOM      3  F   UNL A   1      45.521 -22.533 -42.943  0.00  0.00    -0.133 F 
ENDROOT
BRANCH   1   4
ATOM      4  O   UNL A   1      45.737 -21.372 -41.330  0.00  0.00    -0.281 OA
BRANCH   4   6
ATOM      5  C   UNL A   1      46.392 -19.248 -40.386  0.00  0.00    -0.038 C 
ATOM      6  C   UNL A   1      45.258 -20.246 -40.596  0.00  0.00    +0.065 C 
ATOM      7  C   UNL A   1      44.716 -20.706 -39.243  0.00  0.00    -0.038 C 
ENDBRANCH   4   6
ENDBRANCH   1   4
BRANCH   1   8
ATOM      8  O   UNL A   1      46.389 -22.523 -41.828  0.00  0.00    -0.281 OA
BRANCH   8   9
ATOM      9  C   UNL A   1      47.790 -22.738 -41.869  0.00  0.00    +0.065 C 
ATOM     10  C   UNL A   1      48.148 -24.068 -42.532  0.00  0.00    -0.038 C 
ATOM     11  C   UNL A   1      48.313 -22.710 -40.435  0.00  0.00    -0.038 C 
ENDBRANCH   8   9
ENDBRANCH   1   8
TORSDOF 4
ENDMDL
MODEL 17
REMARK VINA RESULT:    -3.833     20.299     21.328
REMARK INTER + INTRA:          -5.087
REMARK INTER:                  -4.769
REMARK INTRA:                  -0.318
REMARK UNBOUND:                -0.357
REMARK  Name = cpd366.pdb
REMARK  8 active torsions:
REMARK  status: ('A' for Active; 'I' for Inactive)
REMARK    1  A    between atoms: C_1  and  C_2
REMARK    2  A    between atoms: C_2  and  C_3
REMARK    3  A    between atoms: C_2  and  O_4
REMARK    4  A    between atoms: O_4  and  P_5
REMARK    5  A    between atoms: P_5  and  O_8
REMARK    6  A    between atoms: O_8  and  C_9
REMARK    7  A    between atoms: C_9  and  C_10
REMARK    8  A    between atoms: C_9  and  C_11
REMARK                            x       y       z     vdW  Elec       q    Type
REMARK                         _______ _______ _______ _____ _____    ______ ____
ROOT
ATOM      1  P   UNL A   1      55.201 -36.625 -47.609  0.00  0.00    +0.516 P 
ATOM      2  O   UNL A   1      55.785 -37.241 -48.138  0.00  0.00    -0.223 OA
ATOM      3  F   UNL A   1      55.297 -37.219 -46.810  0.00  0.00    -0.133 F 
ENDROOT
BRANCH   1   4
ATOM      4  O   UNL A   1      55.105 -36.031 -48.408  0.00  0.00    -0.281 OA
BRANCH   4   6
ATOM      5  C   UNL A   1      56.248 -34.082 -49.258  0.00  0.00    -0.038 C 
ATOM      6  C   UNL A   1      55.726 -35.481 -49.568  0.00  0.00    +0.065 C 
ATOM      7  C   UNL A   1      54.713 -35.413 -50.711  0.00  0.00    -0.038 C 
ENDBRANCH   4   6
ENDBRANCH   1   4
BRANCH   1   8
ATOM      8  O   UNL A   1      54.617 -36.009 -47.080  0.00  0.00    -0.281 OA
BRANCH   8   9
ATOM      9  C   UNL A   1      54.359 -35.436 -45.810  0.00  0.00    +0.065 C 
ATOM     10  C   UNL A   1      52.877 -35.119 -45.612  0.00  0.00    -0.038 C 
ATOM     11  C   UNL A   1      55.187 -34.160 -45.692  0.00  0.00    -0.038 C 
ENDBRANCH   8   9
ENDBRANCH   1   8
TORSDOF 4
ENDMDL
MODEL 18
REMARK VINA RESULT:    -3.818     17.711     18.706
REMARK INTER + INTRA:          -5.068
REMARK INTER:                  -4.748
REMARK INTRA:                  -0.320
REMARK UNBOUND:                -0.357
REMARK  Name = cpd366.pdb
REMARK  8 active torsions:
REMARK  status: ('A' for Active; 'I' for Inactive)
REMARK    1  A    between atoms: C_1  and  C_2
REMARK    2  A    between atoms: C_2  and  C_3
REMARK    3  A    between atoms: C_2  and  O_4
REMARK    4  A    between atoms: O_4  and  P_5
REMARK    5  A    between atoms: P_5  and  O_8
REMARK    6  A    between atoms: O_8  and  C_9
REMARK    7  A    between atoms: C_9  and  C_10
REMARK    8  A    between atoms: C_9  and  C_11
REMARK                            x       y       z     vdW  Elec       q    Type
REMARK                         _______ _______ _______ _____ _____    ______ ____
ROOT
ATOM      1  P   UNL A   1      45.379 -21.951 -42.154  0.00  0.00    +0.516 P 
ATOM      2  O   UNL A   1      45.575 -22.709 -42.776  0.00  0.00    -0.223 OA
ATOM      3  F   UNL A   1      44.495 -21.814 -42.599  0.00  0.00    -0.133 F 
ENDROOT
BRANCH   1   4
ATOM      4  O   UNL A   1      46.264 -22.088 -41.708  0.00  0.00    -0.281 OA
BRANCH   4   6
ATOM      5  C   UNL A   1      48.289 -22.887 -40.664  0.00  0.00    -0.038 C 
ATOM      6  C   UNL A   1      47.680 -22.170 -41.864  0.00  0.00    +0.065 C 
ATOM      7  C   UNL A   1      48.267 -20.763 -41.980  0.00  0.00    -0.038 C 
ENDBRANCH   4   6
ENDBRANCH   1   4
BRANCH   1   8
ATOM      8  O   UNL A   1      45.183 -21.193 -41.531  0.00  0.00    -0.281 OA
BRANCH   8   9
ATOM      9  C   UNL A   1      44.259 -20.184 -41.163  0.00  0.00    +0.065 C 
ATOM     10  C   UNL A   1      44.826 -18.780 -41.375  0.00  0.00    -0.038 C 
ATOM     11  C   UNL A   1      43.900 -20.386 -39.694  0.00  0.00    -0.038 C 
ENDBRANCH   8   9
ENDBRANCH   1   8
TORSDOF 4
ENDMDL
MODEL 19
REMARK VINA RESULT:    -3.649     34.976     36.244
REMARK INTER + INTRA:          -4.860
REMARK INTER:                  -4.672
REMARK INTRA:                  -0.188
REMARK UNBOUND:                -0.357
REMARK  Name = cpd366.pdb
REMARK  8 active torsions:
REMARK  status: ('A' for Active; 'I' for Inactive)
REMARK    1  A    between atoms: C_1  and  C_2
REMARK    2  A    between atoms: C_2  and  C_3
REMARK    3  A    between atoms: C_2  and  O_4
REMARK    4  A    between atoms: O_4  and  P_5
REMARK    5  A    between atoms: P_5  and  O_8
REMARK    6  A    between atoms: O_8  and  C_9
REMARK    7  A    between atoms: C_9  and  C_10
REMARK    8  A    between atoms: C_9  and  C_11
REMARK                            x       y       z     vdW  Elec       q    Type
REMARK                         _______ _______ _______ _____ _____    ______ ____
ROOT
ATOM      1  P   UNL A   1      63.878 -25.677  -6.592  0.00  0.00    +0.516 P 
ATOM      2  O   UNL A   1      63.988 -26.514  -7.130  0.00  0.00    -0.223 OA
ATOM      3  F   UNL A   1      63.928 -26.213  -5.749  0.00  0.00    -0.133 F 
ENDROOT
BRANCH   1   4
ATOM      4  O   UNL A   1      63.828 -25.142  -7.436  0.00  0.00    -0.281 OA
BRANCH   4   6
ATOM      5  C   UNL A   1      64.223 -24.128  -9.591  0.00  0.00    -0.038 C 
ATOM      6  C   UNL A   1      63.340 -25.066  -8.774  0.00  0.00    +0.065 C 
ATOM      7  C   UNL A   1      61.902 -24.547  -8.769  0.00  0.00    -0.038 C 
ENDBRANCH   4   6
ENDBRANCH   1   4
BRANCH   1   8
ATOM      8  O   UNL A   1      63.768 -24.841  -6.055  0.00  0.00    -0.281 OA
BRANCH   8   9
ATOM      9  C   UNL A   1      64.388 -23.657  -5.584  0.00  0.00    +0.065 C 
ATOM     10  C   UNL A   1      65.075 -23.865  -4.235  0.00  0.00    -0.038 C 
ATOM     11  C   UNL A   1      63.314 -22.579  -5.464  0.00  0.00    -0.038 C 
ENDBRANCH   8   9
ENDBRANCH   1   8
TORSDOF 4
ENDMDL
MODEL 20
REMARK VINA RESULT:    -3.638     17.619     18.561
REMARK INTER + INTRA:          -4.846
REMARK INTER:                  -4.685
REMARK INTRA:                  -0.161
REMARK UNBOUND:                -0.357
REMARK  Name = cpd366.pdb
REMARK  8 active torsions:
REMARK  status: ('A' for Active; 'I' for Inactive)
REMARK    1  A    between atoms: C_1  and  C_2
REMARK    2  A    between atoms: C_2  and  C_3
REMARK    3  A    between atoms: C_2  and  O_4
REMARK    4  A    between atoms: O_4  and  P_5
REMARK    5  A    between atoms: P_5  and  O_8
REMARK    6  A    between atoms: O_8  and  C_9
REMARK    7  A    between atoms: C_9  and  C_10
REMARK    8  A    between atoms: C_9  and  C_11
REMARK                            x       y       z     vdW  Elec       q    Type
REMARK                         _______ _______ _______ _____ _____    ______ ____
ROOT
ATOM      1  P   UNL A   1      46.303 -21.299 -39.757  0.00  0.00    +0.516 P 
ATOM      2  O   UNL A   1      46.484 -20.763 -38.932  0.00  0.00    -0.223 OA
ATOM      3  F   UNL A   1      46.357 -22.141 -39.222  0.00  0.00    -0.133 F 
ENDROOT
BRANCH   1   4
ATOM      4  O   UNL A   1      46.250 -20.456 -40.293  0.00  0.00    -0.281 OA
BRANCH   4   6
ATOM      5  C   UNL A   1      44.682 -18.791 -41.066  0.00  0.00    -0.038 C 
ATOM      6  C   UNL A   1      45.969 -19.057 -40.293  0.00  0.00    +0.065 C 
ATOM      7  C   UNL A   1      47.128 -18.299 -40.942  0.00  0.00    -0.038 C 
ENDBRANCH   4   6
ENDBRANCH   1   4
BRANCH   1   8
ATOM      8  O   UNL A   1      46.123 -21.834 -40.582  0.00  0.00    -0.281 OA
BRANCH   8   9
ATOM      9  C   UNL A   1      46.526 -22.117 -41.911  0.00  0.00    +0.065 C 
ATOM     10  C   UNL A   1      45.345 -22.126 -42.881  0.00  0.00    -0.038 C 
ATOM     11  C   UNL A   1      47.216 -23.479 -41.914  0.00  0.00    -0.038 C 
ENDBRANCH   8   9
ENDBRANCH   1   8
TORSDOF 4
ENDMDL
