@<TRIPOS>MOLECULE
*****
 15 16 0 0 0
SMALL
GASTEIGER

@<TRIPOS>ATOM
      1 C           0.8660   -1.5000    0.0000 C.3     1  UNL1        0.0519
      2 C           0.0000   -1.0000    0.0000 C.ar    1  UNL1        0.0591
      3 N          -0.8660   -1.5000    0.0000 N.ar    1  UNL1       -0.2497
      4 C          -1.7321   -1.0000    0.0000 C.ar    1  UNL1        0.0843
      5 C          -2.5981   -1.5000    0.0000 C.ar    1  UNL1        0.0193
      6 C          -3.4641   -1.0000    0.0000 C.ar    1  UNL1        0.0039
      7 C          -3.4641   -0.0000    0.0000 C.ar    1  UNL1        0.0298
      8 C          -2.5981    0.5000    0.0000 C.ar    1  UNL1        0.1428
      9 F          -2.5981    1.5000    0.0000 F       1  UNL1       -0.2041
     10 C          -1.7321   -0.0000    0.0000 C.ar    1  UNL1        0.0616
     11 C          -0.8660    0.5000    0.0000 C.ar    1  UNL1        0.0923
     12 N          -0.8660    1.5000    0.0000 N.pl3   1  UNL1       -0.1281
     13 C          -0.0000   -0.0000    0.0000 C.ar    1  UNL1        0.0410
     14 C           0.8660    0.5000    0.0000 C.3     1  UNL1        0.2111
     15 O           1.7321    0.0000    0.0000 O.3     1  UNL1       -0.2151
@<TRIPOS>BOND
     1     1     2    1
     2     2     3   ar
     3     3     4   ar
     4     4     5   ar
     5     5     6   ar
     6     6     7   ar
     7     7     8   ar
     8     8     9    1
     9     8    10   ar
    10     4    10   ar
    11    10    11   ar
    12    11    12    1
    13    11    13   ar
    14     2    13   ar
    15    13    14    1
    16    14    15    1
