MODEL 1
REMARK VINA RESULT:    -7.216      0.000      0.000
REMARK INTER + INTRA:          -8.329
REMARK INTER:                  -8.060
REMARK INTRA:                  -0.269
REMARK UNBOUND:                -0.269
REMARK  Name = cpd231.pdb
REMARK  4 active torsions:
REMARK  status: ('A' for Active; 'I' for Inactive)
REMARK    1  A    between atoms: C_1  and  C_2
REMARK    2  A    between atoms: C_11  and  N_12
REMARK    3  A    between atoms: C_13  and  C_14
REMARK    4  A    between atoms: C_14  and  O_15
REMARK                            x       y       z     vdW  Elec       q    Type
REMARK                         _______ _______ _______ _____ _____    ______ ____
ROOT
ATOM      1  C   UNL A   1      37.310 -37.827 -28.119  0.00  0.00    -0.022 C 
ATOM      2  C   UNL A   1      38.205 -37.461 -29.269  0.00  0.00    +0.046 A 
ATOM      3  N   UNL A   1      39.480 -37.906 -29.156  0.00  0.00    -0.251 NA
ATOM      4  C   UNL A   1      40.353 -37.664 -30.141  0.00  0.00    +0.076 A 
ATOM      5  C   UNL A   1      41.641 -38.170 -30.006  0.00  0.00    -0.035 A 
ATOM      6  C   UNL A   1      42.622 -37.974 -30.979  0.00  0.00    -0.057 A 
ATOM      7  C   UNL A   1      42.311 -37.248 -32.117  0.00  0.00    -0.026 A 
ATOM      8  C   UNL A   1      41.025 -36.734 -32.262  0.00  0.00    +0.134 A 
ATOM      9  F   UNL A   1      40.769 -36.009 -33.365  0.00  0.00    -0.205 F 
ATOM     10  C   UNL A   1      40.015 -36.929 -31.290  0.00  0.00    +0.056 A 
ATOM     11  C   UNL A   1      38.691 -36.419 -31.378  0.00  0.00    +0.044 A 
ATOM     12  C   UNL A   1      37.749 -36.736 -30.375  0.00  0.00    +0.020 A 
ENDROOT
BRANCH  11  13
ATOM     13  N   UNL A   1      38.245 -35.792 -32.570  0.00  0.00    -0.357 N 
ATOM     14  H   UNL A   1      37.813 -34.908 -32.529  0.00  0.00    +0.000 HD
ATOM     15  H   UNL A   1      38.365 -36.241 -33.438  0.00  0.00    +0.000 HD
ENDBRANCH  11  13
BRANCH  12  16
ATOM     16  C   UNL A   1      36.313 -36.277 -30.475  0.00  0.00    +0.073 C 
BRANCH  16  17
ATOM     17  O   UNL A   1      35.559 -37.038 -31.416  0.00  0.00    -0.390 OA
ATOM     18  H   UNL A   1      35.885 -37.952 -31.428  0.00  0.00    +0.000 HD
ENDBRANCH  16  17
ENDBRANCH  12  16
TORSDOF 3
ENDMDL
MODEL 2
REMARK VINA RESULT:    -6.783      2.825      5.166
REMARK INTER + INTRA:          -7.845
REMARK INTER:                  -7.595
REMARK INTRA:                  -0.250
REMARK UNBOUND:                -0.269
REMARK  Name = cpd231.pdb
REMARK  4 active torsions:
REMARK  status: ('A' for Active; 'I' for Inactive)
REMARK    1  A    between atoms: C_1  and  C_2
REMARK    2  A    between atoms: C_11  and  N_12
REMARK    3  A    between atoms: C_13  and  C_14
REMARK    4  A    between atoms: C_14  and  O_15
REMARK                            x       y       z     vdW  Elec       q    Type
REMARK                         _______ _______ _______ _____ _____    ______ ____
ROOT
ATOM      1  C   UNL A   1      41.238 -35.741 -32.876  0.00  0.00    -0.022 C 
ATOM      2  C   UNL A   1      40.619 -36.382 -31.665  0.00  0.00    +0.046 A 
ATOM      3  N   UNL A   1      39.323 -36.050 -31.453  0.00  0.00    -0.251 NA
ATOM      4  C   UNL A   1      38.664 -36.590 -30.421  0.00  0.00    +0.076 A 
ATOM      5  C   UNL A   1      37.325 -36.256 -30.257  0.00  0.00    -0.035 A 
ATOM      6  C   UNL A   1      36.552 -36.769 -29.214  0.00  0.00    -0.057 A 
ATOM      7  C   UNL A   1      37.134 -37.637 -28.305  0.00  0.00    -0.026 A 
ATOM      8  C   UNL A   1      38.476 -37.978 -28.456  0.00  0.00    +0.134 A 
ATOM      9  F   UNL A   1      39.013 -38.798 -27.537  0.00  0.00    -0.205 F 
ATOM     10  C   UNL A   1      39.272 -37.473 -29.512  0.00  0.00    +0.056 A 
ATOM     11  C   UNL A   1      40.647 -37.775 -29.709  0.00  0.00    +0.044 A 
ATOM     12  C   UNL A   1      41.323 -37.265 -30.840  0.00  0.00    +0.020 A 
ENDROOT
BRANCH  11  13
ATOM     13  N   UNL A   1      41.283 -38.765 -28.916  0.00  0.00    -0.357 N 
ATOM     14  H   UNL A   1      41.840 -38.499 -28.149  0.00  0.00    +0.000 HD
ATOM     15  H   UNL A   1      41.168 -39.719 -29.132  0.00  0.00    +0.000 HD
ENDBRANCH  11  13
BRANCH  12  16
ATOM     16  C   UNL A   1      42.761 -37.628 -31.124  0.00  0.00    +0.073 C 
BRANCH  16  17
ATOM     17  O   UNL A   1      42.962 -39.036 -31.219  0.00  0.00    -0.390 OA
ATOM     18  H   UNL A   1      43.697 -39.218 -31.825  0.00  0.00    +0.000 HD
ENDBRANCH  16  17
ENDBRANCH  12  16
TORSDOF 3
ENDMDL
MODEL 3
REMARK VINA RESULT:    -6.567      1.664      2.980
REMARK INTER + INTRA:          -7.604
REMARK INTER:                  -7.356
REMARK INTRA:                  -0.248
REMARK UNBOUND:                -0.269
REMARK  Name = cpd231.pdb
REMARK  4 active torsions:
REMARK  status: ('A' for Active; 'I' for Inactive)
REMARK    1  A    between atoms: C_1  and  C_2
REMARK    2  A    between atoms: C_11  and  N_12
REMARK    3  A    between atoms: C_13  and  C_14
REMARK    4  A    between atoms: C_14  and  O_15
REMARK                            x       y       z     vdW  Elec       q    Type
REMARK                         _______ _______ _______ _____ _____    ______ ____
ROOT
ATOM      1  C   UNL A   1      35.624 -35.325 -30.855  0.00  0.00    -0.022 C 
ATOM      2  C   UNL A   1      36.988 -35.951 -30.781  0.00  0.00    +0.046 A 
ATOM      3  N   UNL A   1      37.787 -35.688 -31.844  0.00  0.00    -0.251 NA
ATOM      4  C   UNL A   1      39.036 -36.169 -31.866  0.00  0.00    +0.076 A 
ATOM      5  C   UNL A   1      39.838 -35.846 -32.955  0.00  0.00    -0.035 A 
ATOM      6  C   UNL A   1      41.154 -36.296 -33.068  0.00  0.00    -0.057 A 
ATOM      7  C   UNL A   1      41.684 -37.096 -32.069  0.00  0.00    -0.026 A 
ATOM      8  C   UNL A   1      40.890 -37.428 -30.974  0.00  0.00    +0.134 A 
ATOM      9  F   UNL A   1      41.429 -38.230 -30.040  0.00  0.00    -0.205 F 
ATOM     10  C   UNL A   1      39.556 -36.975 -30.839  0.00  0.00    +0.056 A 
ATOM     11  C   UNL A   1      38.695 -37.291 -29.752  0.00  0.00    +0.044 A 
ATOM     12  C   UNL A   1      37.403 -36.723 -29.692  0.00  0.00    +0.020 A 
ENDROOT
BRANCH  11  13
ATOM     13  N   UNL A   1      39.199 -37.979 -28.618  0.00  0.00    -0.357 N 
ATOM     14  H   UNL A   1      38.662 -38.029 -27.794  0.00  0.00    +0.000 HD
ATOM     15  H   UNL A   1      40.085 -38.406 -28.654  0.00  0.00    +0.000 HD
ENDBRANCH  11  13
BRANCH  12  16
ATOM     16  C   UNL A   1      36.491 -36.974 -28.515  0.00  0.00    +0.073 C 
BRANCH  16  17
ATOM     17  O   UNL A   1      36.392 -38.358 -28.184  0.00  0.00    -0.390 OA
ATOM     18  H   UNL A   1      35.499 -38.550 -27.859  0.00  0.00    +0.000 HD
ENDBRANCH  16  17
ENDBRANCH  12  16
TORSDOF 3
ENDMDL
MODEL 4
REMARK VINA RESULT:    -6.431      2.424      4.279
REMARK INTER + INTRA:          -7.453
REMARK INTER:                  -7.174
REMARK INTRA:                  -0.279
REMARK UNBOUND:                -0.269
REMARK  Name = cpd231.pdb
REMARK  4 active torsions:
REMARK  status: ('A' for Active; 'I' for Inactive)
REMARK    1  A    between atoms: C_1  and  C_2
REMARK    2  A    between atoms: C_11  and  N_12
REMARK    3  A    between atoms: C_13  and  C_14
REMARK    4  A    between atoms: C_14  and  O_15
REMARK                            x       y       z     vdW  Elec       q    Type
REMARK                         _______ _______ _______ _____ _____    ______ ____
ROOT
ATOM      1  C   UNL A   1      41.441 -38.949 -28.432  0.00  0.00    -0.022 C 
ATOM      2  C   UNL A   1      40.673 -38.046 -29.355  0.00  0.00    +0.046 A 
ATOM      3  N   UNL A   1      39.381 -37.842 -28.999  0.00  0.00    -0.251 NA
ATOM      4  C   UNL A   1      38.615 -37.027 -29.734  0.00  0.00    +0.076 A 
ATOM      5  C   UNL A   1      37.307 -36.812 -29.316  0.00  0.00    -0.035 A 
ATOM      6  C   UNL A   1      36.431 -35.978 -30.013  0.00  0.00    -0.057 A 
ATOM      7  C   UNL A   1      36.872 -35.343 -31.162  0.00  0.00    -0.026 A 
ATOM      8  C   UNL A   1      38.180 -35.552 -31.593  0.00  0.00    +0.134 A 
ATOM      9  F   UNL A   1      38.562 -34.943 -32.728  0.00  0.00    -0.205 F 
ATOM     10  C   UNL A   1      39.084 -36.388 -30.895  0.00  0.00    +0.056 A 
ATOM     11  C   UNL A   1      40.424 -36.649 -31.293  0.00  0.00    +0.044 A 
ATOM     12  C   UNL A   1      41.255 -37.449 -30.478  0.00  0.00    +0.020 A 
ENDROOT
BRANCH  11  13
ATOM     13  N   UNL A   1      41.002 -35.930 -32.371  0.00  0.00    -0.357 N 
ATOM     14  H   UNL A   1      41.907 -36.157 -32.685  0.00  0.00    +0.000 HD
ATOM     15  H   UNL A   1      40.499 -35.203 -32.804  0.00  0.00    +0.000 HD
ENDBRANCH  11  13
BRANCH  12  16
ATOM     16  C   UNL A   1      42.705 -37.683 -30.829  0.00  0.00    +0.073 C 
BRANCH  16  17
ATOM     17  O   UNL A   1      43.486 -36.493 -30.751  0.00  0.00    -0.390 OA
ATOM     18  H   UNL A   1      43.433 -36.129 -29.854  0.00  0.00    +0.000 HD
ENDBRANCH  16  17
ENDBRANCH  12  16
TORSDOF 3
ENDMDL
MODEL 5
REMARK VINA RESULT:    -6.265      3.509      4.964
REMARK INTER + INTRA:          -7.267
REMARK INTER:                  -7.019
REMARK INTRA:                  -0.248
REMARK UNBOUND:                -0.269
REMARK  Name = cpd231.pdb
REMARK  4 active torsions:
REMARK  status: ('A' for Active; 'I' for Inactive)
REMARK    1  A    between atoms: C_1  and  C_2
REMARK    2  A    between atoms: C_11  and  N_12
REMARK    3  A    between atoms: C_13  and  C_14
REMARK    4  A    between atoms: C_14  and  O_15
REMARK                            x       y       z     vdW  Elec       q    Type
REMARK                         _______ _______ _______ _____ _____    ______ ____
ROOT
ATOM      1  C   UNL A   1      32.550 -33.842 -29.470  0.00  0.00    -0.022 C 
ATOM      2  C   UNL A   1      33.890 -34.503 -29.626  0.00  0.00    +0.046 A 
ATOM      3  N   UNL A   1      34.189 -35.407 -28.661  0.00  0.00    -0.251 NA
ATOM      4  C   UNL A   1      35.344 -36.079 -28.722  0.00  0.00    +0.076 A 
ATOM      5  C   UNL A   1      35.598 -37.026 -27.736  0.00  0.00    -0.035 A 
ATOM      6  C   UNL A   1      36.772 -37.780 -27.714  0.00  0.00    -0.057 A 
ATOM      7  C   UNL A   1      37.723 -37.579 -28.701  0.00  0.00    -0.026 A 
ATOM      8  C   UNL A   1      37.482 -36.632 -29.692  0.00  0.00    +0.134 A 
ATOM      9  F   UNL A   1      38.441 -36.444 -30.616  0.00  0.00    -0.205 F 
ATOM     10  C   UNL A   1      36.294 -35.864 -29.735  0.00  0.00    +0.056 A 
ATOM     11  C   UNL A   1      35.999 -34.875 -30.713  0.00  0.00    +0.044 A 
ATOM     12  C   UNL A   1      34.748 -34.219 -30.693  0.00  0.00    +0.020 A 
ENDROOT
BRANCH  11  13
ATOM     13  N   UNL A   1      36.846 -34.708 -31.839  0.00  0.00    -0.357 N 
ATOM     14  H   UNL A   1      37.819 -34.824 -31.745  0.00  0.00    +0.000 HD
ATOM     15  H   UNL A   1      36.461 -34.476 -32.715  0.00  0.00    +0.000 HD
ENDBRANCH  11  13
BRANCH  12  16
ATOM     16  C   UNL A   1      34.369 -33.221 -31.761  0.00  0.00    +0.073 C 
BRANCH  16  17
ATOM     17  O   UNL A   1      35.387 -32.249 -31.988  0.00  0.00    -0.390 OA
ATOM     18  H   UNL A   1      35.831 -32.436 -32.830  0.00  0.00    +0.000 HD
ENDBRANCH  16  17
ENDBRANCH  12  16
TORSDOF 3
ENDMDL
MODEL 6
REMARK VINA RESULT:    -6.262      1.829      2.958
REMARK INTER + INTRA:          -7.264
REMARK INTER:                  -6.987
REMARK INTRA:                  -0.277
REMARK UNBOUND:                -0.269
REMARK  Name = cpd231.pdb
REMARK  4 active torsions:
REMARK  status: ('A' for Active; 'I' for Inactive)
REMARK    1  A    between atoms: C_1  and  C_2
REMARK    2  A    between atoms: C_11  and  N_12
REMARK    3  A    between atoms: C_13  and  C_14
REMARK    4  A    between atoms: C_14  and  O_15
REMARK                            x       y       z     vdW  Elec       q    Type
REMARK                         _______ _______ _______ _____ _____    ______ ____
ROOT
ATOM      1  C   UNL A   1      38.278 -33.698 -32.037  0.00  0.00    -0.022 C 
ATOM      2  C   UNL A   1      39.043 -34.892 -31.539  0.00  0.00    +0.046 A 
ATOM      3  N   UNL A   1      40.353 -34.906 -31.885  0.00  0.00    -0.251 NA
ATOM      4  C   UNL A   1      41.135 -35.908 -31.466  0.00  0.00    +0.076 A 
ATOM      5  C   UNL A   1      42.482 -35.869 -31.809  0.00  0.00    -0.035 A 
ATOM      6  C   UNL A   1      43.378 -36.864 -31.417  0.00  0.00    -0.057 A 
ATOM      7  C   UNL A   1      42.917 -37.932 -30.666  0.00  0.00    -0.026 A 
ATOM      8  C   UNL A   1      41.569 -37.985 -30.319  0.00  0.00    +0.134 A 
ATOM      9  F   UNL A   1      41.153 -39.052 -29.616  0.00  0.00    -0.205 F 
ATOM     10  C   UNL A   1      40.647 -36.981 -30.701  0.00  0.00    +0.056 A 
ATOM     11  C   UNL A   1      39.261 -36.987 -30.386  0.00  0.00    +0.044 A 
ATOM     12  C   UNL A   1      38.451 -35.894 -30.764  0.00  0.00    +0.020 A 
ENDROOT
BRANCH  11  13
ATOM     13  N   UNL A   1      38.733 -37.962 -29.501  0.00  0.00    -0.357 N 
ATOM     14  H   UNL A   1      38.554 -37.729 -28.561  0.00  0.00    +0.000 HD
ATOM     15  H   UNL A   1      38.546 -38.873 -29.826  0.00  0.00    +0.000 HD
ENDBRANCH  11  13
BRANCH  12  16
ATOM     16  C   UNL A   1      36.991 -35.830 -30.380  0.00  0.00    +0.073 C 
BRANCH  16  17
ATOM     17  O   UNL A   1      36.243 -36.932 -30.888  0.00  0.00    -0.390 OA
ATOM     18  H   UNL A   1      35.327 -36.874 -30.572  0.00  0.00    +0.000 HD
ENDBRANCH  16  17
ENDBRANCH  12  16
TORSDOF 3
ENDMDL
MODEL 7
REMARK VINA RESULT:    -6.137      3.081      4.305
REMARK INTER + INTRA:          -7.124
REMARK INTER:                  -6.905
REMARK INTRA:                  -0.218
REMARK UNBOUND:                -0.269
REMARK  Name = cpd231.pdb
REMARK  4 active torsions:
REMARK  status: ('A' for Active; 'I' for Inactive)
REMARK    1  A    between atoms: C_1  and  C_2
REMARK    2  A    between atoms: C_11  and  N_12
REMARK    3  A    between atoms: C_13  and  C_14
REMARK    4  A    between atoms: C_14  and  O_15
REMARK                            x       y       z     vdW  Elec       q    Type
REMARK                         _______ _______ _______ _____ _____    ______ ____
ROOT
ATOM      1  C   UNL A   1      33.234 -35.038 -28.979  0.00  0.00    -0.022 C 
ATOM      2  C   UNL A   1      34.523 -34.783 -29.708  0.00  0.00    +0.046 A 
ATOM      3  N   UNL A   1      35.406 -35.810 -29.668  0.00  0.00    -0.251 NA
ATOM      4  C   UNL A   1      36.574 -35.701 -30.314  0.00  0.00    +0.076 A 
ATOM      5  C   UNL A   1      37.438 -36.790 -30.282  0.00  0.00    -0.035 A 
ATOM      6  C   UNL A   1      38.676 -36.775 -30.926  0.00  0.00    -0.057 A 
ATOM      7  C   UNL A   1      39.065 -35.640 -31.617  0.00  0.00    -0.026 A 
ATOM      8  C   UNL A   1      38.210 -34.542 -31.653  0.00  0.00    +0.134 A 
ATOM      9  F   UNL A   1      38.636 -33.448 -32.308  0.00  0.00    -0.205 F 
ATOM     10  C   UNL A   1      36.948 -34.541 -31.013  0.00  0.00    +0.056 A 
ATOM     11  C   UNL A   1      36.040 -33.448 -31.006  0.00  0.00    +0.044 A 
ATOM     12  C   UNL A   1      34.777 -33.588 -30.388  0.00  0.00    +0.020 A 
ENDROOT
BRANCH  11  13
ATOM     13  N   UNL A   1      36.292 -32.303 -31.806  0.00  0.00    -0.357 N 
ATOM     14  H   UNL A   1      36.732 -32.402 -32.681  0.00  0.00    +0.000 HD
ATOM     15  H   UNL A   1      36.027 -31.411 -31.487  0.00  0.00    +0.000 HD
ENDBRANCH  11  13
BRANCH  12  16
ATOM     16  C   UNL A   1      33.757 -32.475 -30.429  0.00  0.00    +0.073 C 
BRANCH  16  17
ATOM     17  O   UNL A   1      33.514 -32.003 -31.751  0.00  0.00    -0.390 OA
ATOM     18  H   UNL A   1      34.321 -32.095 -32.281  0.00  0.00    +0.000 HD
ENDBRANCH  16  17
ENDBRANCH  12  16
TORSDOF 3
ENDMDL
MODEL 8
REMARK VINA RESULT:    -6.014     19.696     20.308
REMARK INTER + INTRA:          -6.986
REMARK INTER:                  -6.711
REMARK INTRA:                  -0.275
REMARK UNBOUND:                -0.269
REMARK  Name = cpd231.pdb
REMARK  4 active torsions:
REMARK  status: ('A' for Active; 'I' for Inactive)
REMARK    1  A    between atoms: C_1  and  C_2
REMARK    2  A    between atoms: C_11  and  N_12
REMARK    3  A    between atoms: C_13  and  C_14
REMARK    4  A    between atoms: C_14  and  O_15
REMARK                            x       y       z     vdW  Elec       q    Type
REMARK                         _______ _______ _______ _____ _____    ______ ____
ROOT
ATOM      1  C   UNL A   1      47.349 -24.005 -42.750  0.00  0.00    -0.022 C 
ATOM      2  C   UNL A   1      46.881 -22.907 -41.837  0.00  0.00    +0.046 A 
ATOM      3  N   UNL A   1      45.577 -22.568 -41.984  0.00  0.00    -0.251 NA
ATOM      4  C   UNL A   1      45.048 -21.624 -41.198  0.00  0.00    +0.076 A 
ATOM      5  C   UNL A   1      43.698 -21.330 -41.353  0.00  0.00    -0.035 A 
ATOM      6  C   UNL A   1      43.053 -20.364 -40.578  0.00  0.00    -0.057 A 
ATOM      7  C   UNL A   1      43.778 -19.667 -39.625  0.00  0.00    -0.026 A 
ATOM      8  C   UNL A   1      45.131 -19.950 -39.463  0.00  0.00    +0.134 A 
ATOM      9  F   UNL A   1      45.808 -19.233 -38.549  0.00  0.00    -0.205 F 
ATOM     10  C   UNL A   1      45.800 -20.931 -40.233  0.00  0.00    +0.056 A 
ATOM     11  C   UNL A   1      47.180 -21.254 -40.120  0.00  0.00    +0.044 A 
ATOM     12  C   UNL A   1      47.721 -22.301 -40.897  0.00  0.00    +0.020 A 
ENDROOT
BRANCH  11  13
ATOM     13  N   UNL A   1      47.961 -20.697 -39.075  0.00  0.00    -0.357 N 
ATOM     14  H   UNL A   1      47.929 -21.090 -38.172  0.00  0.00    +0.000 HD
ATOM     15  H   UNL A   1      48.535 -19.916 -39.251  0.00  0.00    +0.000 HD
ENDBRANCH  11  13
BRANCH  12  16
ATOM     16  C   UNL A   1      49.164 -22.724 -40.747  0.00  0.00    +0.073 C 
BRANCH  16  17
ATOM     17  O   UNL A   1      50.077 -21.697 -41.128  0.00  0.00    -0.390 OA
ATOM     18  H   UNL A   1      50.388 -21.861 -42.033  0.00  0.00    +0.000 HD
ENDBRANCH  16  17
ENDBRANCH  12  16
TORSDOF 3
ENDMDL
MODEL 9
REMARK VINA RESULT:    -6.014      2.183      2.989
REMARK INTER + INTRA:          -6.986
REMARK INTER:                  -6.712
REMARK INTRA:                  -0.275
REMARK UNBOUND:                -0.269
REMARK  Name = cpd231.pdb
REMARK  4 active torsions:
REMARK  status: ('A' for Active; 'I' for Inactive)
REMARK    1  A    between atoms: C_1  and  C_2
REMARK    2  A    between atoms: C_11  and  N_12
REMARK    3  A    between atoms: C_13  and  C_14
REMARK    4  A    between atoms: C_14  and  O_15
REMARK                            x       y       z     vdW  Elec       q    Type
REMARK                         _______ _______ _______ _____ _____    ______ ____
ROOT
ATOM      1  C   UNL A   1      34.503 -36.827 -27.515  0.00  0.00    -0.022 C 
ATOM      2  C   UNL A   1      35.537 -36.454 -28.539  0.00  0.00    +0.046 A 
ATOM      3  N   UNL A   1      36.704 -37.136 -28.438  0.00  0.00    -0.251 NA
ATOM      4  C   UNL A   1      37.683 -36.906 -29.321  0.00  0.00    +0.076 A 
ATOM      5  C   UNL A   1      38.850 -37.652 -29.208  0.00  0.00    -0.035 A 
ATOM      6  C   UNL A   1      39.925 -37.488 -30.082  0.00  0.00    -0.057 A 
ATOM      7  C   UNL A   1      39.836 -36.547 -31.095  0.00  0.00    -0.026 A 
ATOM      8  C   UNL A   1      38.673 -35.790 -31.217  0.00  0.00    +0.134 A 
ATOM      9  F   UNL A   1      38.635 -34.867 -32.193  0.00  0.00    -0.205 F 
ATOM     10  C   UNL A   1      37.570 -35.949 -30.345  0.00  0.00    +0.056 A 
ATOM     11  C   UNL A   1      36.364 -35.199 -30.412  0.00  0.00    +0.044 A 
ATOM     12  C   UNL A   1      35.303 -35.493 -29.528  0.00  0.00    +0.020 A 
ENDROOT
BRANCH  11  13
ATOM     13  N   UNL A   1      36.129 -34.321 -31.502  0.00  0.00    -0.357 N 
ATOM     14  H   UNL A   1      36.884 -33.992 -32.041  0.00  0.00    +0.000 HD
ATOM     15  H   UNL A   1      35.211 -34.040 -31.719  0.00  0.00    +0.000 HD
ENDBRANCH  11  13
BRANCH  12  16
ATOM     16  C   UNL A   1      33.981 -34.770 -29.622  0.00  0.00    +0.073 C 
BRANCH  16  17
ATOM     17  O   UNL A   1      34.119 -33.357 -29.491  0.00  0.00    -0.390 OA
ATOM     18  H   UNL A   1      35.054 -33.134 -29.359  0.00  0.00    +0.000 HD
ENDBRANCH  16  17
ENDBRANCH  12  16
TORSDOF 3
ENDMDL
MODEL 10
REMARK VINA RESULT:    -5.877     22.263     24.101
REMARK INTER + INTRA:          -6.834
REMARK INTER:                  -6.553
REMARK INTRA:                  -0.281
REMARK UNBOUND:                -0.269
REMARK  Name = cpd231.pdb
REMARK  4 active torsions:
REMARK  status: ('A' for Active; 'I' for Inactive)
REMARK    1  A    between atoms: C_1  and  C_2
REMARK    2  A    between atoms: C_11  and  N_12
REMARK    3  A    between atoms: C_13  and  C_14
REMARK    4  A    between atoms: C_14  and  O_15
REMARK                            x       y       z     vdW  Elec       q    Type
REMARK                         _______ _______ _______ _____ _____    ______ ____
ROOT
ATOM      1  C   UNL A   1      56.953 -37.003 -51.305  0.00  0.00    -0.022 C 
ATOM      2  C   UNL A   1      56.372 -36.636 -49.968  0.00  0.00    +0.046 A 
ATOM      3  N   UNL A   1      56.785 -35.439 -49.484  0.00  0.00    -0.251 NA
ATOM      4  C   UNL A   1      56.304 -34.999 -48.315  0.00  0.00    +0.076 A 
ATOM      5  C   UNL A   1      56.722 -33.750 -47.869  0.00  0.00    -0.035 A 
ATOM      6  C   UNL A   1      56.274 -33.202 -46.666  0.00  0.00    -0.057 A 
ATOM      7  C   UNL A   1      55.390 -33.924 -45.882  0.00  0.00    -0.026 A 
ATOM      8  C   UNL A   1      54.967 -35.178 -46.316  0.00  0.00    +0.134 A 
ATOM      9  F   UNL A   1      54.132 -35.861 -45.514  0.00  0.00    -0.205 F 
ATOM     10  C   UNL A   1      55.403 -35.745 -47.537  0.00  0.00    +0.056 A 
ATOM     11  C   UNL A   1      55.016 -37.023 -48.025  0.00  0.00    +0.044 A 
ATOM     12  C   UNL A   1      55.464 -37.456 -49.292  0.00  0.00    +0.020 A 
ENDROOT
BRANCH  11  13
ATOM     13  N   UNL A   1      54.004 -37.765 -47.361  0.00  0.00    -0.357 N 
ATOM     14  H   UNL A   1      54.161 -38.708 -47.122  0.00  0.00    +0.000 HD
ATOM     15  H   UNL A   1      53.145 -37.338 -47.140  0.00  0.00    +0.000 HD
ENDBRANCH  11  13
BRANCH  12  16
ATOM     16  C   UNL A   1      55.011 -38.773 -49.876  0.00  0.00    +0.073 C 
BRANCH  16  17
ATOM     17  O   UNL A   1      53.631 -38.767 -50.234  0.00  0.00    -0.390 OA
ATOM     18  H   UNL A   1      53.392 -37.895 -50.586  0.00  0.00    +0.000 HD
ENDBRANCH  16  17
ENDBRANCH  12  16
TORSDOF 3
ENDMDL
MODEL 11
REMARK VINA RESULT:    -5.870     20.801     22.294
REMARK INTER + INTRA:          -6.826
REMARK INTER:                  -6.579
REMARK INTRA:                  -0.247
REMARK UNBOUND:                -0.269
REMARK  Name = cpd231.pdb
REMARK  4 active torsions:
REMARK  status: ('A' for Active; 'I' for Inactive)
REMARK    1  A    between atoms: C_1  and  C_2
REMARK    2  A    between atoms: C_11  and  N_12
REMARK    3  A    between atoms: C_13  and  C_14
REMARK    4  A    between atoms: C_14  and  O_15
REMARK                            x       y       z     vdW  Elec       q    Type
REMARK                         _______ _______ _______ _____ _____    ______ ____
ROOT
ATOM      1  C   UNL A   1      53.724 -37.822 -50.962  0.00  0.00    -0.022 C 
ATOM      2  C   UNL A   1      53.546 -37.165 -49.623  0.00  0.00    +0.046 A 
ATOM      3  N   UNL A   1      54.666 -36.585 -49.126  0.00  0.00    -0.251 NA
ATOM      4  C   UNL A   1      54.611 -35.942 -47.954  0.00  0.00    +0.076 A 
ATOM      5  C   UNL A   1      55.771 -35.328 -47.495  0.00  0.00    -0.035 A 
ATOM      6  C   UNL A   1      55.814 -34.630 -46.286  0.00  0.00    -0.057 A 
ATOM      7  C   UNL A   1      54.669 -34.549 -45.511  0.00  0.00    -0.026 A 
ATOM      8  C   UNL A   1      53.503 -35.162 -45.959  0.00  0.00    +0.134 A 
ATOM      9  F   UNL A   1      52.420 -35.087 -45.165  0.00  0.00    -0.205 F 
ATOM     10  C   UNL A   1      53.437 -35.867 -47.184  0.00  0.00    +0.056 A 
ATOM     11  C   UNL A   1      52.280 -36.522 -47.686  0.00  0.00    +0.044 A 
ATOM     12  C   UNL A   1      52.317 -37.137 -48.957  0.00  0.00    +0.020 A 
ENDROOT
BRANCH  11  13
ATOM     13  N   UNL A   1      51.030 -36.367 -47.032  0.00  0.00    -0.357 N 
ATOM     14  H   UNL A   1      50.196 -36.597 -47.502  0.00  0.00    +0.000 HD
ATOM     15  H   UNL A   1      50.997 -36.028 -46.108  0.00  0.00    +0.000 HD
ENDBRANCH  11  13
BRANCH  12  16
ATOM     16  C   UNL A   1      51.085 -37.775 -49.555  0.00  0.00    +0.073 C 
BRANCH  16  17
ATOM     17  O   UNL A   1      50.214 -36.823 -50.159  0.00  0.00    -0.390 OA
ATOM     18  H   UNL A   1      50.735 -36.082 -50.507  0.00  0.00    +0.000 HD
ENDBRANCH  16  17
ENDBRANCH  12  16
TORSDOF 3
ENDMDL
MODEL 12
REMARK VINA RESULT:    -5.739     35.705     36.901
REMARK INTER + INTRA:          -6.679
REMARK INTER:                  -6.434
REMARK INTRA:                  -0.245
REMARK UNBOUND:                -0.269
REMARK  Name = cpd231.pdb
REMARK  4 active torsions:
REMARK  status: ('A' for Active; 'I' for Inactive)
REMARK    1  A    between atoms: C_1  and  C_2
REMARK    2  A    between atoms: C_11  and  N_12
REMARK    3  A    between atoms: C_13  and  C_14
REMARK    4  A    between atoms: C_14  and  O_15
REMARK                            x       y       z     vdW  Elec       q    Type
REMARK                         _______ _______ _______ _____ _____    ______ ____
ROOT
ATOM      1  C   UNL A   1      62.079 -25.022  -9.466  0.00  0.00    -0.022 C 
ATOM      2  C   UNL A   1      62.755 -24.857  -8.134  0.00  0.00    +0.046 A 
ATOM      3  N   UNL A   1      63.404 -23.678  -7.973  0.00  0.00    -0.251 NA
ATOM      4  C   UNL A   1      64.014 -23.413  -6.812  0.00  0.00    +0.076 A 
ATOM      5  C   UNL A   1      64.636 -22.178  -6.671  0.00  0.00    -0.035 A 
ATOM      6  C   UNL A   1      65.295 -21.808  -5.498  0.00  0.00    -0.057 A 
ATOM      7  C   UNL A   1      65.339 -22.697  -4.437  0.00  0.00    -0.026 A 
ATOM      8  C   UNL A   1      64.722 -23.938  -4.566  0.00  0.00    +0.134 A 
ATOM      9  F   UNL A   1      64.811 -24.785  -3.527  0.00  0.00    -0.205 F 
ATOM     10  C   UNL A   1      64.043 -24.328  -5.745  0.00  0.00    +0.056 A 
ATOM     11  C   UNL A   1      63.406 -25.584  -5.939  0.00  0.00    +0.044 A 
ATOM     12  C   UNL A   1      62.699 -25.836  -7.136  0.00  0.00    +0.020 A 
ENDROOT
BRANCH  11  13
ATOM     13  N   UNL A   1      63.276 -26.495  -4.859  0.00  0.00    -0.357 N 
ATOM     14  H   UNL A   1      62.568 -27.179  -4.874  0.00  0.00    +0.000 HD
ATOM     15  H   UNL A   1      63.892 -26.442  -4.093  0.00  0.00    +0.000 HD
ENDBRANCH  11  13
BRANCH  12  16
ATOM     16  C   UNL A   1      61.946 -27.128  -7.345  0.00  0.00    +0.073 C 
BRANCH  16  17
ATOM     17  O   UNL A   1      62.726 -28.275  -7.018  0.00  0.00    -0.390 OA
ATOM     18  H   UNL A   1      63.017 -28.712  -7.833  0.00  0.00    +0.000 HD
ENDBRANCH  16  17
ENDBRANCH  12  16
TORSDOF 3
ENDMDL
MODEL 13
REMARK VINA RESULT:    -5.688     35.415     36.603
REMARK INTER + INTRA:          -6.622
REMARK INTER:                  -6.343
REMARK INTRA:                  -0.279
REMARK UNBOUND:                -0.269
REMARK  Name = cpd231.pdb
REMARK  4 active torsions:
REMARK  status: ('A' for Active; 'I' for Inactive)
REMARK    1  A    between atoms: C_1  and  C_2
REMARK    2  A    between atoms: C_11  and  N_12
REMARK    3  A    between atoms: C_13  and  C_14
REMARK    4  A    between atoms: C_14  and  O_15
REMARK                            x       y       z     vdW  Elec       q    Type
REMARK                         _______ _______ _______ _____ _____    ______ ____
ROOT
ATOM      1  C   UNL A   1      64.981 -21.017  -5.510  0.00  0.00    -0.022 C 
ATOM      2  C   UNL A   1      64.297 -22.162  -6.202  0.00  0.00    +0.046 A 
ATOM      3  N   UNL A   1      64.145 -22.003  -7.539  0.00  0.00    -0.251 NA
ATOM      4  C   UNL A   1      63.578 -22.978  -8.259  0.00  0.00    +0.076 A 
ATOM      5  C   UNL A   1      63.474 -22.795  -9.633  0.00  0.00    -0.035 A 
ATOM      6  C   UNL A   1      62.901 -23.754 -10.470  0.00  0.00    -0.057 A 
ATOM      7  C   UNL A   1      62.412 -24.927  -9.919  0.00  0.00    -0.026 A 
ATOM      8  C   UNL A   1      62.507 -25.121  -8.543  0.00  0.00    +0.134 A 
ATOM      9  F   UNL A   1      61.994 -26.258  -8.042  0.00  0.00    -0.205 F 
ATOM     10  C   UNL A   1      63.092 -24.163  -7.681  0.00  0.00    +0.056 A 
ATOM     11  C   UNL A   1      63.205 -24.300  -6.270  0.00  0.00    +0.044 A 
ATOM     12  C   UNL A   1      63.871 -23.306  -5.519  0.00  0.00    +0.020 A 
ENDROOT
BRANCH  11  13
ATOM     13  N   UNL A   1      62.865 -25.526  -5.641  0.00  0.00    -0.357 N 
ATOM     14  H   UNL A   1      61.935 -25.849  -5.662  0.00  0.00    +0.000 HD
ATOM     15  H   UNL A   1      63.559 -26.054  -5.184  0.00  0.00    +0.000 HD
ENDBRANCH  11  13
BRANCH  12  16
ATOM     16  C   UNL A   1      64.078 -23.456  -4.031  0.00  0.00    +0.073 C 
BRANCH  16  17
ATOM     17  O   UNL A   1      64.951 -24.534  -3.706  0.00  0.00    -0.390 OA
ATOM     18  H   UNL A   1      65.081 -25.093  -4.488  0.00  0.00    +0.000 HD
ENDBRANCH  16  17
ENDBRANCH  12  16
TORSDOF 3
ENDMDL
MODEL 14
REMARK VINA RESULT:    -5.590     22.402     24.599
REMARK INTER + INTRA:          -6.513
REMARK INTER:                  -6.253
REMARK INTRA:                  -0.259
REMARK UNBOUND:                -0.269
REMARK  Name = cpd231.pdb
REMARK  4 active torsions:
REMARK  status: ('A' for Active; 'I' for Inactive)
REMARK    1  A    between atoms: C_1  and  C_2
REMARK    2  A    between atoms: C_11  and  N_12
REMARK    3  A    between atoms: C_13  and  C_14
REMARK    4  A    between atoms: C_14  and  O_15
REMARK                            x       y       z     vdW  Elec       q    Type
REMARK                         _______ _______ _______ _____ _____    ______ ____
ROOT
ATOM      1  C   UNL A   1      54.526 -37.938 -50.911  0.00  0.00    -0.022 C 
ATOM      2  C   UNL A   1      54.960 -36.820 -50.005  0.00  0.00    +0.046 A 
ATOM      3  N   UNL A   1      54.422 -36.861 -48.761  0.00  0.00    -0.251 NA
ATOM      4  C   UNL A   1      54.767 -35.932 -47.862  0.00  0.00    +0.076 A 
ATOM      5  C   UNL A   1      54.225 -36.029 -46.586  0.00  0.00    -0.035 A 
ATOM      6  C   UNL A   1      54.525 -35.111 -45.579  0.00  0.00    -0.057 A 
ATOM      7  C   UNL A   1      55.387 -34.062 -45.855  0.00  0.00    -0.026 A 
ATOM      8  C   UNL A   1      55.934 -33.952 -47.130  0.00  0.00    +0.134 A 
ATOM      9  F   UNL A   1      56.742 -32.905 -47.369  0.00  0.00    -0.205 F 
ATOM     10  C   UNL A   1      55.647 -34.878 -48.162  0.00  0.00    +0.056 A 
ATOM     11  C   UNL A   1      56.166 -34.810 -49.484  0.00  0.00    +0.044 A 
ATOM     12  C   UNL A   1      55.861 -35.831 -50.410  0.00  0.00    +0.020 A 
ENDROOT
BRANCH  11  13
ATOM     13  N   UNL A   1      57.166 -33.858 -49.811  0.00  0.00    -0.357 N 
ATOM     14  H   UNL A   1      58.072 -33.946 -49.436  0.00  0.00    +0.000 HD
ATOM     15  H   UNL A   1      56.954 -33.108 -50.413  0.00  0.00    +0.000 HD
ENDBRANCH  11  13
BRANCH  12  16
ATOM     16  C   UNL A   1      56.456 -35.833 -51.799  0.00  0.00    +0.073 C 
BRANCH  16  17
ATOM     17  O   UNL A   1      57.882 -35.856 -51.783  0.00  0.00    -0.390 OA
ATOM     18  H   UNL A   1      58.223 -35.010 -52.115  0.00  0.00    +0.000 HD
ENDBRANCH  16  17
ENDBRANCH  12  16
TORSDOF 3
ENDMDL
MODEL 15
REMARK VINA RESULT:    -5.393     19.114     20.029
REMARK INTER + INTRA:          -6.293
REMARK INTER:                  -6.047
REMARK INTRA:                  -0.246
REMARK UNBOUND:                -0.269
REMARK  Name = cpd231.pdb
REMARK  4 active torsions:
REMARK  status: ('A' for Active; 'I' for Inactive)
REMARK    1  A    between atoms: C_1  and  C_2
REMARK    2  A    between atoms: C_11  and  N_12
REMARK    3  A    between atoms: C_13  and  C_14
REMARK    4  A    between atoms: C_14  and  O_15
REMARK                            x       y       z     vdW  Elec       q    Type
REMARK                         _______ _______ _______ _____ _____    ______ ____
ROOT
ATOM      1  C   UNL A   1      45.138 -22.160 -42.898  0.00  0.00    -0.022 C 
ATOM      2  C   UNL A   1      45.511 -21.693 -41.520  0.00  0.00    +0.046 A 
ATOM      3  N   UNL A   1      44.457 -21.401 -40.719  0.00  0.00    -0.251 NA
ATOM      4  C   UNL A   1      44.676 -21.007 -39.458  0.00  0.00    +0.076 A 
ATOM      5  C   UNL A   1      43.570 -20.753 -38.656  0.00  0.00    -0.035 A 
ATOM      6  C   UNL A   1      43.693 -20.341 -37.328  0.00  0.00    -0.057 A 
ATOM      7  C   UNL A   1      44.957 -20.173 -36.787  0.00  0.00    -0.026 A 
ATOM      8  C   UNL A   1      46.073 -20.421 -37.582  0.00  0.00    +0.134 A 
ATOM      9  F   UNL A   1      47.282 -20.217 -37.031  0.00  0.00    -0.205 F 
ATOM     10  C   UNL A   1      45.967 -20.847 -38.927  0.00  0.00    +0.056 A 
ATOM     11  C   UNL A   1      47.068 -21.103 -39.789  0.00  0.00    +0.044 A 
ATOM     12  C   UNL A   1      46.839 -21.590 -41.095  0.00  0.00    +0.020 A 
ENDROOT
BRANCH  11  13
ATOM     13  N   UNL A   1      48.392 -21.098 -39.278  0.00  0.00    -0.357 N 
ATOM     14  H   UNL A   1      49.157 -21.186 -39.892  0.00  0.00    +0.000 HD
ATOM     15  H   UNL A   1      48.546 -21.006 -38.310  0.00  0.00    +0.000 HD
ENDBRANCH  11  13
BRANCH  12  16
ATOM     16  C   UNL A   1      47.986 -21.947 -42.011  0.00  0.00    +0.073 C 
BRANCH  16  17
ATOM     17  O   UNL A   1      48.976 -20.923 -42.073  0.00  0.00    -0.390 OA
ATOM     18  H   UNL A   1      49.013 -20.563 -42.974  0.00  0.00    +0.000 HD
ENDBRANCH  16  17
ENDBRANCH  12  16
TORSDOF 3
ENDMDL
MODEL 16
REMARK VINA RESULT:    -5.355     19.638     20.524
REMARK INTER + INTRA:          -6.250
REMARK INTER:                  -5.972
REMARK INTRA:                  -0.278
REMARK UNBOUND:                -0.269
REMARK  Name = cpd231.pdb
REMARK  4 active torsions:
REMARK  status: ('A' for Active; 'I' for Inactive)
REMARK    1  A    between atoms: C_1  and  C_2
REMARK    2  A    between atoms: C_11  and  N_12
REMARK    3  A    between atoms: C_13  and  C_14
REMARK    4  A    between atoms: C_14  and  O_15
REMARK                            x       y       z     vdW  Elec       q    Type
REMARK                         _______ _______ _______ _____ _____    ______ ____
ROOT
ATOM      1  C   UNL A   1      43.923 -17.881 -40.619  0.00  0.00    -0.022 C 
ATOM      2  C   UNL A   1      44.893 -19.023 -40.502  0.00  0.00    +0.046 A 
ATOM      3  N   UNL A   1      44.773 -19.966 -41.468  0.00  0.00    -0.251 NA
ATOM      4  C   UNL A   1      45.609 -21.011 -41.478  0.00  0.00    +0.076 A 
ATOM      5  C   UNL A   1      45.480 -21.937 -42.507  0.00  0.00    -0.035 A 
ATOM      6  C   UNL A   1      46.306 -23.058 -42.606  0.00  0.00    -0.057 A 
ATOM      7  C   UNL A   1      47.285 -23.263 -41.648  0.00  0.00    -0.026 A 
ATOM      8  C   UNL A   1      47.422 -22.344 -40.611  0.00  0.00    +0.134 A 
ATOM      9  F   UNL A   1      48.364 -22.593 -39.685  0.00  0.00    -0.205 F 
ATOM     10  C   UNL A   1      46.600 -21.198 -40.499  0.00  0.00    +0.056 A 
ATOM     11  C   UNL A   1      46.685 -20.234 -39.458  0.00  0.00    +0.044 A 
ATOM     12  C   UNL A   1      45.853 -19.093 -39.488  0.00  0.00    +0.020 A 
ENDROOT
BRANCH  11  13
ATOM     13  N   UNL A   1      47.749 -20.286 -38.521  0.00  0.00    -0.357 N 
ATOM     14  H   UNL A   1      47.647 -20.801 -37.688  0.00  0.00    +0.000 HD
ATOM     15  H   UNL A   1      48.590 -19.807 -38.702  0.00  0.00    +0.000 HD
ENDBRANCH  11  13
BRANCH  12  16
ATOM     16  C   UNL A   1      45.970 -18.010 -38.442  0.00  0.00    +0.073 C 
BRANCH  16  17
ATOM     17  O   UNL A   1      45.702 -18.488 -37.126  0.00  0.00    -0.390 OA
ATOM     18  H   UNL A   1      45.994 -17.830 -36.476  0.00  0.00    +0.000 HD
ENDBRANCH  16  17
ENDBRANCH  12  16
TORSDOF 3
ENDMDL
MODEL 17
REMARK VINA RESULT:    -5.279     31.958     33.315
REMARK INTER + INTRA:          -6.165
REMARK INTER:                  -5.889
REMARK INTRA:                  -0.276
REMARK UNBOUND:                -0.269
REMARK  Name = cpd231.pdb
REMARK  4 active torsions:
REMARK  status: ('A' for Active; 'I' for Inactive)
REMARK    1  A    between atoms: C_1  and  C_2
REMARK    2  A    between atoms: C_11  and  N_12
REMARK    3  A    between atoms: C_13  and  C_14
REMARK    4  A    between atoms: C_14  and  O_15
REMARK                            x       y       z     vdW  Elec       q    Type
REMARK                         _______ _______ _______ _____ _____    ______ ____
ROOT
ATOM      1  C   UNL A   1      64.421 -13.191 -26.856  0.00  0.00    -0.022 C 
ATOM      2  C   UNL A   1      63.698 -13.419 -28.153  0.00  0.00    +0.046 A 
ATOM      3  N   UNL A   1      62.363 -13.189 -28.103  0.00  0.00    -0.251 NA
ATOM      4  C   UNL A   1      61.627 -13.329 -29.212  0.00  0.00    +0.076 A 
ATOM      5  C   UNL A   1      60.268 -13.047 -29.130  0.00  0.00    -0.035 A 
ATOM      6  C   UNL A   1      59.418 -13.161 -30.231  0.00  0.00    -0.057 A 
ATOM      7  C   UNL A   1      59.937 -13.574 -31.447  0.00  0.00    -0.026 A 
ATOM      8  C   UNL A   1      61.296 -13.863 -31.540  0.00  0.00    +0.134 A 
ATOM      9  F   UNL A   1      61.757 -14.290 -32.729  0.00  0.00    -0.205 F 
ATOM     10  C   UNL A   1      62.175 -13.746 -30.437  0.00  0.00    +0.056 A 
ATOM     11  C   UNL A   1      63.565 -14.038 -30.470  0.00  0.00    +0.044 A 
ATOM     12  C   UNL A   1      64.356 -13.818 -29.321  0.00  0.00    +0.020 A 
ENDROOT
BRANCH  11  13
ATOM     13  N   UNL A   1      64.207 -14.325 -31.703  0.00  0.00    -0.357 N 
ATOM     14  H   UNL A   1      63.975 -15.144 -32.200  0.00  0.00    +0.000 HD
ATOM     15  H   UNL A   1      64.884 -13.707 -32.062  0.00  0.00    +0.000 HD
ENDBRANCH  11  13
BRANCH  12  16
ATOM     16  C   UNL A   1      65.850 -14.044 -29.342  0.00  0.00    +0.073 C 
BRANCH  16  17
ATOM     17  O   UNL A   1      66.196 -15.383 -29.687  0.00  0.00    -0.390 OA
ATOM     18  H   UNL A   1      65.404 -15.941 -29.654  0.00  0.00    +0.000 HD
ENDBRANCH  16  17
ENDBRANCH  12  16
TORSDOF 3
ENDMDL
MODEL 18
REMARK VINA RESULT:    -5.151     23.621     25.408
REMARK INTER + INTRA:          -6.022
REMARK INTER:                  -5.775
REMARK INTRA:                  -0.247
REMARK UNBOUND:                -0.269
REMARK  Name = cpd231.pdb
REMARK  4 active torsions:
REMARK  status: ('A' for Active; 'I' for Inactive)
REMARK    1  A    between atoms: C_1  and  C_2
REMARK    2  A    between atoms: C_11  and  N_12
REMARK    3  A    between atoms: C_13  and  C_14
REMARK    4  A    between atoms: C_14  and  O_15
REMARK                            x       y       z     vdW  Elec       q    Type
REMARK                         _______ _______ _______ _____ _____    ______ ____
ROOT
ATOM      1  C   UNL A   1      45.382 -34.574 -58.655  0.00  0.00    -0.022 C 
ATOM      2  C   UNL A   1      45.278 -34.828 -57.177  0.00  0.00    +0.046 A 
ATOM      3  N   UNL A   1      45.249 -36.138 -56.831  0.00  0.00    -0.251 NA
ATOM      4  C   UNL A   1      45.191 -36.477 -55.538  0.00  0.00    +0.076 A 
ATOM      5  C   UNL A   1      45.202 -37.831 -55.220  0.00  0.00    -0.035 A 
ATOM      6  C   UNL A   1      45.148 -38.285 -53.901  0.00  0.00    -0.057 A 
ATOM      7  C   UNL A   1      45.075 -37.362 -52.871  0.00  0.00    -0.026 A 
ATOM      8  C   UNL A   1      45.060 -36.004 -53.176  0.00  0.00    +0.134 A 
ATOM      9  F   UNL A   1      44.959 -35.140 -52.151  0.00  0.00    -0.205 F 
ATOM     10  C   UNL A   1      45.122 -35.525 -54.506  0.00  0.00    +0.056 A 
ATOM     11  C   UNL A   1      45.099 -34.153 -54.879  0.00  0.00    +0.044 A 
ATOM     12  C   UNL A   1      45.235 -33.793 -56.238  0.00  0.00    +0.020 A 
ENDROOT
BRANCH  11  13
ATOM     13  N   UNL A   1      45.173 -33.141 -53.887  0.00  0.00    -0.357 N 
ATOM     14  H   UNL A   1      44.349 -32.721 -53.550  0.00  0.00    +0.000 HD
ATOM     15  H   UNL A   1      46.048 -32.859 -53.536  0.00  0.00    +0.000 HD
ENDBRANCH  11  13
BRANCH  12  16
ATOM     16  C   UNL A   1      45.292 -32.344 -56.663  0.00  0.00    +0.073 C 
BRANCH  16  17
ATOM     17  O   UNL A   1      44.026 -31.695 -56.567  0.00  0.00    -0.390 OA
ATOM     18  H   UNL A   1      43.785 -31.592 -55.633  0.00  0.00    +0.000 HD
ENDBRANCH  16  17
ENDBRANCH  12  16
TORSDOF 3
ENDMDL
MODEL 19
REMARK VINA RESULT:    -5.047     19.562     19.809
REMARK INTER + INTRA:          -5.906
REMARK INTER:                  -5.628
REMARK INTRA:                  -0.278
REMARK UNBOUND:                -0.269
REMARK  Name = cpd231.pdb
REMARK  4 active torsions:
REMARK  status: ('A' for Active; 'I' for Inactive)
REMARK    1  A    between atoms: C_1  and  C_2
REMARK    2  A    between atoms: C_11  and  N_12
REMARK    3  A    between atoms: C_13  and  C_14
REMARK    4  A    between atoms: C_14  and  O_15
REMARK                            x       y       z     vdW  Elec       q    Type
REMARK                         _______ _______ _______ _____ _____    ______ ____
ROOT
ATOM      1  C   UNL A   1      43.677 -19.302 -37.503  0.00  0.00    -0.022 C 
ATOM      2  C   UNL A   1      44.545 -20.070 -38.459  0.00  0.00    +0.046 A 
ATOM      3  N   UNL A   1      43.935 -20.422 -39.617  0.00  0.00    -0.251 NA
ATOM      4  C   UNL A   1      44.628 -21.080 -40.554  0.00  0.00    +0.076 A 
ATOM      5  C   UNL A   1      43.979 -21.391 -41.744  0.00  0.00    -0.035 A 
ATOM      6  C   UNL A   1      44.616 -22.072 -42.782  0.00  0.00    -0.057 A 
ATOM      7  C   UNL A   1      45.937 -22.460 -42.626  0.00  0.00    -0.026 A 
ATOM      8  C   UNL A   1      46.596 -22.158 -41.438  0.00  0.00    +0.134 A 
ATOM      9  F   UNL A   1      47.867 -22.578 -41.312  0.00  0.00    -0.205 F 
ATOM     10  C   UNL A   1      45.969 -21.461 -40.378  0.00  0.00    +0.056 A 
ATOM     11  C   UNL A   1      46.587 -21.137 -39.139  0.00  0.00    +0.044 A 
ATOM     12  C   UNL A   1      45.881 -20.377 -38.180  0.00  0.00    +0.020 A 
ENDROOT
BRANCH  11  13
ATOM     13  N   UNL A   1      47.975 -21.365 -38.951  0.00  0.00    -0.357 N 
ATOM     14  H   UNL A   1      48.326 -22.285 -38.943  0.00  0.00    +0.000 HD
ATOM     15  H   UNL A   1      48.587 -20.604 -38.828  0.00  0.00    +0.000 HD
ENDBRANCH  11  13
BRANCH  12  16
ATOM     16  C   UNL A   1      46.532 -19.947 -36.887  0.00  0.00    +0.073 C 
BRANCH  16  17
ATOM     17  O   UNL A   1      47.609 -19.036 -37.092  0.00  0.00    -0.390 OA
ATOM     18  H   UNL A   1      48.238 -19.417 -37.725  0.00  0.00    +0.000 HD
ENDBRANCH  16  17
ENDBRANCH  12  16
TORSDOF 3
ENDMDL
MODEL 20
REMARK VINA RESULT:    -4.835     23.346     25.273
REMARK INTER + INTRA:          -5.669
REMARK INTER:                  -5.420
REMARK INTRA:                  -0.249
REMARK UNBOUND:                -0.269
REMARK  Name = cpd231.pdb
REMARK  4 active torsions:
REMARK  status: ('A' for Active; 'I' for Inactive)
REMARK    1  A    between atoms: C_1  and  C_2
REMARK    2  A    between atoms: C_11  and  N_12
REMARK    3  A    between atoms: C_13  and  C_14
REMARK    4  A    between atoms: C_14  and  O_15
REMARK                            x       y       z     vdW  Elec       q    Type
REMARK                         _______ _______ _______ _____ _____    ______ ____
ROOT
ATOM      1  C   UNL A   1      53.559 -34.625 -53.165  0.00  0.00    -0.022 C 
ATOM      2  C   UNL A   1      54.236 -34.759 -51.830  0.00  0.00    +0.046 A 
ATOM      3  N   UNL A   1      53.657 -35.653 -50.992  0.00  0.00    -0.251 NA
ATOM      4  C   UNL A   1      54.199 -35.876 -49.788  0.00  0.00    +0.076 A 
ATOM      5  C   UNL A   1      53.600 -36.827 -48.971  0.00  0.00    -0.035 A 
ATOM      6  C   UNL A   1      54.092 -37.132 -47.701  0.00  0.00    -0.057 A 
ATOM      7  C   UNL A   1      55.210 -36.465 -47.231  0.00  0.00    -0.026 A 
ATOM      8  C   UNL A   1      55.818 -35.507 -48.039  0.00  0.00    +0.134 A 
ATOM      9  F   UNL A   1      56.883 -34.860 -47.536  0.00  0.00    -0.205 F 
ATOM     10  C   UNL A   1      55.338 -35.190 -49.332  0.00  0.00    +0.056 A 
ATOM     11  C   UNL A   1      55.909 -34.215 -50.195  0.00  0.00    +0.044 A 
ATOM     12  C   UNL A   1      55.382 -34.033 -51.493  0.00  0.00    +0.020 A 
ENDROOT
BRANCH  11  13
ATOM     13  N   UNL A   1      57.137 -33.591 -49.856  0.00  0.00    -0.357 N 
ATOM     14  H   UNL A   1      57.559 -33.776 -48.985  0.00  0.00    +0.000 HD
ATOM     15  H   UNL A   1      57.567 -32.973 -50.490  0.00  0.00    +0.000 HD
ENDBRANCH  11  13
BRANCH  12  16
ATOM     16  C   UNL A   1      56.011 -33.063 -52.465  0.00  0.00    +0.073 C 
BRANCH  16  17
ATOM     17  O   UNL A   1      56.231 -31.777 -51.889  0.00  0.00    -0.390 OA
ATOM     18  H   UNL A   1      55.925 -31.779 -50.968  0.00  0.00    +0.000 HD
ENDBRANCH  16  17
ENDBRANCH  12  16
TORSDOF 3
ENDMDL
