REMARK  Name = cpd231.pdb
REMARK  4 active torsions:
REMARK  status: ('A' for Active; 'I' for Inactive)
REMARK    1  A    between atoms: C_1  and  C_2
REMARK    2  A    between atoms: C_11  and  N_12
REMARK    3  A    between atoms: C_13  and  C_14
REMARK    4  A    between atoms: C_14  and  O_15
REMARK                            x       y       z     vdW  Elec       q    Type
REMARK                         _______ _______ _______ _____ _____    ______ ____
ROOT
ATOM      1  C   UNL A   1       1.503  -2.264  -0.479  0.00  0.00    -0.022 C 
ATOM      2  C   UNL A   1       0.316  -1.363  -0.286  0.00  0.00    +0.046 A 
ATOM      3  N   UNL A   1      -0.883  -1.994  -0.323  0.00  0.00    -0.251 NA
ATOM      4  C   UNL A   1      -2.005  -1.291  -0.129  0.00  0.00    +0.076 A 
ATOM      5  C   UNL A   1      -3.213  -1.979  -0.136  0.00  0.00    -0.035 A 
ATOM      6  C   UNL A   1      -4.436  -1.336   0.060  0.00  0.00    -0.057 A 
ATOM      7  C   UNL A   1      -4.455   0.034   0.263  0.00  0.00    -0.026 A 
ATOM      8  C   UNL A   1      -3.252   0.735   0.269  0.00  0.00    +0.134 A 
ATOM      9  F   UNL A   1      -3.313   2.067   0.439  0.00  0.00    -0.205 F 
ATOM     10  C   UNL A   1      -2.002   0.099   0.080  0.00  0.00    +0.056 A 
ATOM     11  C   UNL A   1      -0.745   0.763   0.064  0.00  0.00    +0.044 A 
ATOM     12  C   UNL A   1       0.444   0.012  -0.066  0.00  0.00    +0.020 A 
ENDROOT
BRANCH  11  13
ATOM     13  N   UNL A   1      -0.658   2.137   0.408  0.00  0.00    -0.357 N 
ATOM     14  H   UNL A   1      -1.478   2.674   0.502  0.00  0.00    +0.000 HD
ATOM     15  H   UNL A   1       0.222   2.554   0.552  0.00  0.00    +0.000 HD
ENDBRANCH  11  13
BRANCH  12  16
ATOM     16  C   UNL A   1       1.800   0.675  -0.009  0.00  0.00    +0.073 C 
BRANCH  16  17
ATOM     17  O   UNL A   1       1.969   1.476   1.158  0.00  0.00    -0.390 OA
ATOM     18  H   UNL A   1       1.310   2.188   1.160  0.00  0.00    +0.000 HD
ENDBRANCH  16  17
ENDBRANCH  12  16
TORSDOF 3
