MODEL 1
REMARK VINA RESULT:   -11.031      0.000      0.000
REMARK INTER + INTRA:         -17.992
REMARK INTER:                 -17.480
REMARK INTRA:                  -0.513
REMARK UNBOUND:                -0.513
REMARK  Name = cpd74.pdb
REMARK  13 active torsions:
REMARK  status: ('A' for Active; 'I' for Inactive)
REMARK    1  A    between atoms: C_1  and  O_2
REMARK    2  A    between atoms: O_2  and  C_3
REMARK    3  A    between atoms: C_5  and  C_6
REMARK    4  A    between atoms: N_8  and  C_9
REMARK    5  A    between atoms: C_9  and  C_10
REMARK    6  A    between atoms: C_10  and  C_11
REMARK    7  A    between atoms: C_11  and  C_12
REMARK    8  A    between atoms: N_14  and  N_15
REMARK    9  A    between atoms: N_15  and  C_16
REMARK   10  A    between atoms: C_31  and  O_32
REMARK   11  A    between atoms: O_32  and  C_33
REMARK   12  A    between atoms: C_34  and  O_35
REMARK   13  A    between atoms: O_35  and  C_36
REMARK                            x       y       z     vdW  Elec       q    Type
REMARK                         _______ _______ _______ _____ _____    ______ ____
ROOT
ATOM      1  C   UNL A   1      45.472 -36.597 -29.757  0.00  0.00    +0.229 C 
ATOM      2  O   UNL A   1      46.314 -35.993 -29.101  0.00  0.00    -0.274 OA
ATOM      3  N   UNL A   1      45.213 -37.945 -29.580  0.00  0.00    -0.236 N 
ATOM      4  H   UNL A   1      44.432 -38.379 -29.993  0.00  0.00    +0.000 HD
ENDROOT
BRANCH   3   5
ATOM      5  N   UNL A   1      46.127 -38.671 -28.776  0.00  0.00    -0.264 N 
ATOM      6  H   UNL A   1      46.147 -38.662 -27.792  0.00  0.00    +0.000 HD
BRANCH   5   7
ATOM      7  C   UNL A   1      47.018 -39.420 -29.610  0.00  0.00    +0.058 A 
ATOM      8  C   UNL A   1      48.334 -38.942 -29.773  0.00  0.00    -0.003 A 
ATOM      9  C   UNL A   1      49.186 -39.667 -30.605  0.00  0.00    +0.047 A 
ATOM     10  N   UNL A   1      48.790 -40.761 -31.292  0.00  0.00    -0.251 NA
ATOM     11  C   UNL A   1      47.530 -41.200 -31.157  0.00  0.00    +0.073 A 
ATOM     12  C   UNL A   1      47.157 -42.327 -31.878  0.00  0.00    -0.036 A 
ATOM     13  C   UNL A   1      45.868 -42.858 -31.808  0.00  0.00    -0.060 A 
ATOM     14  C   UNL A   1      44.922 -42.250 -30.997  0.00  0.00    -0.061 A 
ATOM     15  C   UNL A   1      45.274 -41.117 -30.263  0.00  0.00    -0.051 A 
ATOM     16  C   UNL A   1      46.582 -40.570 -30.328  0.00  0.00    +0.023 A 
ATOM     17  C   UNL A   1      50.614 -39.243 -30.838  0.00  0.00    -0.010 C 
ATOM     18  C   UNL A   1      51.154 -38.326 -29.746  0.00  0.00    -0.047 C 
ATOM     19  C   UNL A   1      50.169 -37.196 -29.487  0.00  0.00    -0.049 C 
ATOM     20  C   UNL A   1      48.835 -37.752 -28.989  0.00  0.00    -0.024 C 
ENDBRANCH   5   7
ENDBRANCH   3   5
BRANCH   1  21
ATOM     21  C   UNL A   1      44.575 -35.956 -30.796  0.00  0.00    +0.027 C 
BRANCH  21  22
ATOM     22  C   UNL A   1      43.281 -36.729 -31.050  0.00  0.00    -0.029 C 
BRANCH  22  23
ATOM     23  C   UNL A   1      42.185 -35.849 -31.651  0.00  0.00    +0.012 C 
BRANCH  23  26
ATOM     24  C   UNL A   1      39.729 -35.588 -31.600  0.00  0.00    +0.244 C 
ATOM     25  O   UNL A   1      39.719 -34.724 -32.468  0.00  0.00    -0.270 OA
ATOM     26  N   UNL A   1      40.875 -36.200 -31.137  0.00  0.00    -0.311 N 
ATOM     27  H   UNL A   1      40.802 -36.892 -30.440  0.00  0.00    +0.000 HD
BRANCH  24  30
ATOM     28  C   UNL A   1      37.197 -37.400 -29.424  0.00  0.00    +0.166 A 
ATOM     29  C   UNL A   1      38.413 -37.036 -30.006  0.00  0.00    -0.004 A 
ATOM     30  C   UNL A   1      38.452 -36.004 -30.956  0.00  0.00    +0.044 A 
ATOM     31  C   UNL A   1      37.275 -35.352 -31.350  0.00  0.00    -0.004 A 
ATOM     32  C   UNL A   1      36.052 -35.706 -30.782  0.00  0.00    +0.166 A 
ATOM     33  C   UNL A   1      36.023 -36.738 -29.827  0.00  0.00    +0.204 A 
BRANCH  28  35
ATOM     34  C   UNL A   1      37.030 -39.733 -28.934  0.00  0.00    +0.079 C 
ATOM     35  O   UNL A   1      37.044 -38.387 -28.484  0.00  0.00    -0.491 OA
ENDBRANCH  28  35
BRANCH  32  36
ATOM     36  O   UNL A   1      34.848 -35.124 -31.085  0.00  0.00    -0.491 OA
ATOM     37  C   UNL A   1      34.696 -33.741 -30.788  0.00  0.00    +0.079 C 
ENDBRANCH  32  36
BRANCH  33  38
ATOM     38  O   UNL A   1      34.830 -37.064 -29.220  0.00  0.00    -0.488 OA
ATOM     39  C   UNL A   1      34.669 -36.295 -28.027  0.00  0.00    +0.079 C 
ENDBRANCH  33  38
ENDBRANCH  24  30
ENDBRANCH  23  26
ENDBRANCH  22  23
ENDBRANCH  21  22
ENDBRANCH   1  21
TORSDOF 10
ENDMDL
MODEL 2
REMARK VINA RESULT:   -10.441      0.848      2.291
REMARK INTER + INTRA:         -17.057
REMARK INTER:                 -16.422
REMARK INTRA:                  -0.635
REMARK UNBOUND:                -0.513
REMARK  Name = cpd74.pdb
REMARK  13 active torsions:
REMARK  status: ('A' for Active; 'I' for Inactive)
REMARK    1  A    between atoms: C_1  and  O_2
REMARK    2  A    between atoms: O_2  and  C_3
REMARK    3  A    between atoms: C_5  and  C_6
REMARK    4  A    between atoms: N_8  and  C_9
REMARK    5  A    between atoms: C_9  and  C_10
REMARK    6  A    between atoms: C_10  and  C_11
REMARK    7  A    between atoms: C_11  and  C_12
REMARK    8  A    between atoms: N_14  and  N_15
REMARK    9  A    between atoms: N_15  and  C_16
REMARK   10  A    between atoms: C_31  and  O_32
REMARK   11  A    between atoms: O_32  and  C_33
REMARK   12  A    between atoms: C_34  and  O_35
REMARK   13  A    between atoms: O_35  and  C_36
REMARK                            x       y       z     vdW  Elec       q    Type
REMARK                         _______ _______ _______ _____ _____    ______ ____
ROOT
ATOM      1  C   UNL A   1      45.636 -36.040 -30.331  0.00  0.00    +0.229 C 
ATOM      2  O   UNL A   1      46.664 -35.384 -30.202  0.00  0.00    -0.274 OA
ATOM      3  N   UNL A   1      45.367 -37.166 -29.572  0.00  0.00    -0.236 N 
ATOM      4  H   UNL A   1      44.477 -37.586 -29.570  0.00  0.00    +0.000 HD
ENDROOT
BRANCH   3   5
ATOM      5  N   UNL A   1      46.436 -37.685 -28.799  0.00  0.00    -0.264 N 
ATOM      6  H   UNL A   1      46.701 -37.358 -27.910  0.00  0.00    +0.000 HD
BRANCH   5   7
ATOM      7  C   UNL A   1      47.071 -38.756 -29.506  0.00  0.00    +0.058 A 
ATOM      8  C   UNL A   1      48.407 -38.577 -29.920  0.00  0.00    -0.003 A 
ATOM      9  C   UNL A   1      49.009 -39.617 -30.626  0.00  0.00    +0.047 A 
ATOM     10  N   UNL A   1      48.354 -40.748 -30.972  0.00  0.00    -0.251 NA
ATOM     11  C   UNL A   1      47.075 -40.906 -30.601  0.00  0.00    +0.073 A 
ATOM     12  C   UNL A   1      46.434 -42.080 -30.973  0.00  0.00    -0.036 A 
ATOM     13  C   UNL A   1      45.103 -42.335 -30.639  0.00  0.00    -0.060 A 
ATOM     14  C   UNL A   1      44.389 -41.394 -29.912  0.00  0.00    -0.061 A 
ATOM     15  C   UNL A   1      45.013 -40.208 -29.528  0.00  0.00    -0.051 A 
ATOM     16  C   UNL A   1      46.365 -39.939 -29.863  0.00  0.00    +0.023 A 
ATOM     17  C   UNL A   1      50.436 -39.528 -31.105  0.00  0.00    -0.010 C 
ATOM     18  C   UNL A   1      51.262 -38.500 -30.340  0.00  0.00    -0.047 C 
ATOM     19  C   UNL A   1      50.509 -37.180 -30.273  0.00  0.00    -0.049 C 
ATOM     20  C   UNL A   1      49.192 -37.352 -29.515  0.00  0.00    -0.024 C 
ENDBRANCH   5   7
ENDBRANCH   3   5
BRANCH   1  21
ATOM     21  C   UNL A   1      44.510 -35.688 -31.282  0.00  0.00    +0.027 C 
BRANCH  21  22
ATOM     22  C   UNL A   1      43.118 -35.931 -30.701  0.00  0.00    -0.029 C 
BRANCH  22  23
ATOM     23  C   UNL A   1      42.244 -36.785 -31.620  0.00  0.00    +0.012 C 
BRANCH  23  26
ATOM     24  C   UNL A   1      39.943 -35.895 -31.742  0.00  0.00    +0.244 C 
ATOM     25  O   UNL A   1      40.217 -35.072 -32.607  0.00  0.00    -0.270 OA
ATOM     26  N   UNL A   1      40.856 -36.775 -31.199  0.00  0.00    -0.311 N 
ATOM     27  H   UNL A   1      40.558 -37.412 -30.510  0.00  0.00    +0.000 HD
BRANCH  24  30
ATOM     28  C   UNL A   1      36.274 -35.161 -31.085  0.00  0.00    +0.166 A 
ATOM     29  C   UNL A   1      37.558 -35.077 -31.627  0.00  0.00    -0.004 A 
ATOM     30  C   UNL A   1      38.561 -35.954 -31.189  0.00  0.00    +0.044 A 
ATOM     31  C   UNL A   1      38.294 -36.900 -30.188  0.00  0.00    -0.004 A 
ATOM     32  C   UNL A   1      37.018 -36.995 -29.634  0.00  0.00    +0.166 A 
ATOM     33  C   UNL A   1      36.018 -36.114 -30.082  0.00  0.00    +0.204 A 
BRANCH  28  35
ATOM     34  C   UNL A   1      35.231 -33.012 -30.996  0.00  0.00    +0.079 C 
ATOM     35  O   UNL A   1      35.219 -34.360 -31.443  0.00  0.00    -0.491 OA
ENDBRANCH  28  35
BRANCH  32  36
ATOM     36  O   UNL A   1      36.650 -37.891 -28.664  0.00  0.00    -0.491 OA
ATOM     37  C   UNL A   1      37.223 -39.191 -28.720  0.00  0.00    +0.079 C 
ENDBRANCH  32  36
BRANCH  33  38
ATOM     38  O   UNL A   1      34.740 -36.230 -29.581  0.00  0.00    -0.488 OA
ATOM     39  C   UNL A   1      33.978 -37.116 -30.400  0.00  0.00    +0.079 C 
ENDBRANCH  33  38
ENDBRANCH  24  30
ENDBRANCH  23  26
ENDBRANCH  22  23
ENDBRANCH  21  22
ENDBRANCH   1  21
TORSDOF 10
ENDMDL
MODEL 3
REMARK VINA RESULT:   -10.255      0.887      3.143
REMARK INTER + INTRA:         -16.763
REMARK INTER:                 -16.336
REMARK INTRA:                  -0.427
REMARK UNBOUND:                -0.513
REMARK  Name = cpd74.pdb
REMARK  13 active torsions:
REMARK  status: ('A' for Active; 'I' for Inactive)
REMARK    1  A    between atoms: C_1  and  O_2
REMARK    2  A    between atoms: O_2  and  C_3
REMARK    3  A    between atoms: C_5  and  C_6
REMARK    4  A    between atoms: N_8  and  C_9
REMARK    5  A    between atoms: C_9  and  C_10
REMARK    6  A    between atoms: C_10  and  C_11
REMARK    7  A    between atoms: C_11  and  C_12
REMARK    8  A    between atoms: N_14  and  N_15
REMARK    9  A    between atoms: N_15  and  C_16
REMARK   10  A    between atoms: C_31  and  O_32
REMARK   11  A    between atoms: O_32  and  C_33
REMARK   12  A    between atoms: C_34  and  O_35
REMARK   13  A    between atoms: O_35  and  C_36
REMARK                            x       y       z     vdW  Elec       q    Type
REMARK                         _______ _______ _______ _____ _____    ______ ____
ROOT
ATOM      1  C   UNL A   1      45.387 -36.048 -30.278  0.00  0.00    +0.229 C 
ATOM      2  O   UNL A   1      46.336 -35.300 -30.070  0.00  0.00    -0.274 OA
ATOM      3  N   UNL A   1      45.217 -37.245 -29.603  0.00  0.00    -0.236 N 
ATOM      4  H   UNL A   1      44.377 -37.754 -29.660  0.00  0.00    +0.000 HD
ENDROOT
BRANCH   3   5
ATOM      5  N   UNL A   1      46.311 -37.702 -28.827  0.00  0.00    -0.264 N 
ATOM      6  H   UNL A   1      46.538 -37.381 -27.925  0.00  0.00    +0.000 HD
BRANCH   5   7
ATOM      7  C   UNL A   1      47.039 -38.699 -29.553  0.00  0.00    +0.058 A 
ATOM      8  C   UNL A   1      46.375 -39.900 -29.877  0.00  0.00    -0.003 A 
ATOM      9  C   UNL A   1      47.099 -40.873 -30.564  0.00  0.00    +0.047 A 
ATOM     10  N   UNL A   1      48.406 -40.733 -30.878  0.00  0.00    -0.251 NA
ATOM     11  C   UNL A   1      49.044 -39.602 -30.545  0.00  0.00    +0.073 A 
ATOM     12  C   UNL A   1      50.387 -39.492 -30.883  0.00  0.00    -0.036 A 
ATOM     13  C   UNL A   1      51.138 -38.357 -30.577  0.00  0.00    -0.060 A 
ATOM     14  C   UNL A   1      50.535 -37.298 -29.915  0.00  0.00    -0.061 A 
ATOM     15  C   UNL A   1      49.188 -37.385 -29.566  0.00  0.00    -0.051 A 
ATOM     16  C   UNL A   1      48.416 -38.535 -29.873  0.00  0.00    +0.023 A 
ATOM     17  C   UNL A   1      46.478 -42.187 -30.964  0.00  0.00    -0.010 C 
ATOM     18  C   UNL A   1      44.955 -42.139 -31.017  0.00  0.00    -0.047 C 
ATOM     19  C   UNL A   1      44.413 -41.521 -29.737  0.00  0.00    -0.049 C 
ATOM     20  C   UNL A   1      44.903 -40.080 -29.589  0.00  0.00    -0.024 C 
ENDBRANCH   5   7
ENDBRANCH   3   5
BRANCH   1  21
ATOM     21  C   UNL A   1      44.259 -35.752 -31.244  0.00  0.00    +0.027 C 
BRANCH  21  22
ATOM     22  C   UNL A   1      42.869 -35.978 -30.652  0.00  0.00    -0.029 C 
BRANCH  22  23
ATOM     23  C   UNL A   1      41.897 -36.590 -31.661  0.00  0.00    +0.012 C 
BRANCH  23  26
ATOM     24  C   UNL A   1      39.515 -36.193 -31.143  0.00  0.00    +0.244 C 
ATOM     25  O   UNL A   1      39.469 -35.139 -31.765  0.00  0.00    -0.270 OA
ATOM     26  N   UNL A   1      40.647 -36.974 -31.036  0.00  0.00    -0.311 N 
ATOM     27  H   UNL A   1      40.604 -37.813 -30.523  0.00  0.00    +0.000 HD
BRANCH  24  30
ATOM     28  C   UNL A   1      37.210 -38.216 -28.903  0.00  0.00    +0.166 A 
ATOM     29  C   UNL A   1      38.361 -37.792 -29.569  0.00  0.00    -0.004 A 
ATOM     30  C   UNL A   1      38.308 -36.675 -30.415  0.00  0.00    +0.044 A 
ATOM     31  C   UNL A   1      37.100 -35.993 -30.622  0.00  0.00    -0.004 A 
ATOM     32  C   UNL A   1      35.940 -36.406 -29.969  0.00  0.00    +0.166 A 
ATOM     33  C   UNL A   1      36.004 -37.525 -29.119  0.00  0.00    +0.204 A 
BRANCH  28  35
ATOM     34  C   UNL A   1      37.129 -40.589 -28.622  0.00  0.00    +0.079 C 
ATOM     35  O   UNL A   1      37.148 -39.289 -28.050  0.00  0.00    -0.491 OA
ENDBRANCH  28  35
BRANCH  32  36
ATOM     36  O   UNL A   1      34.714 -35.803 -30.090  0.00  0.00    -0.491 OA
ATOM     37  C   UNL A   1      34.391 -35.224 -31.348  0.00  0.00    +0.079 C 
ENDBRANCH  32  36
BRANCH  33  38
ATOM     38  O   UNL A   1      34.877 -37.913 -28.427  0.00  0.00    -0.488 OA
ATOM     39  C   UNL A   1      34.761 -37.150 -27.226  0.00  0.00    +0.079 C 
ENDBRANCH  33  38
ENDBRANCH  24  30
ENDBRANCH  23  26
ENDBRANCH  22  23
ENDBRANCH  21  22
ENDBRANCH   1  21
TORSDOF 10
ENDMDL
MODEL 4
REMARK VINA RESULT:    -9.194      6.113      9.473
REMARK INTER + INTRA:         -15.081
REMARK INTER:                 -13.389
REMARK INTRA:                  -1.693
REMARK UNBOUND:                -0.513
REMARK  Name = cpd74.pdb
REMARK  13 active torsions:
REMARK  status: ('A' for Active; 'I' for Inactive)
REMARK    1  A    between atoms: C_1  and  O_2
REMARK    2  A    between atoms: O_2  and  C_3
REMARK    3  A    between atoms: C_5  and  C_6
REMARK    4  A    between atoms: N_8  and  C_9
REMARK    5  A    between atoms: C_9  and  C_10
REMARK    6  A    between atoms: C_10  and  C_11
REMARK    7  A    between atoms: C_11  and  C_12
REMARK    8  A    between atoms: N_14  and  N_15
REMARK    9  A    between atoms: N_15  and  C_16
REMARK   10  A    between atoms: C_31  and  O_32
REMARK   11  A    between atoms: O_32  and  C_33
REMARK   12  A    between atoms: C_34  and  O_35
REMARK   13  A    between atoms: O_35  and  C_36
REMARK                            x       y       z     vdW  Elec       q    Type
REMARK                         _______ _______ _______ _____ _____    ______ ____
ROOT
ATOM      1  C   UNL A   1      34.748 -33.497 -31.226  0.00  0.00    +0.229 C 
ATOM      2  O   UNL A   1      33.928 -34.024 -31.970  0.00  0.00    -0.274 OA
ATOM      3  N   UNL A   1      36.066 -33.915 -31.151  0.00  0.00    -0.236 N 
ATOM      4  H   UNL A   1      36.748 -33.387 -30.676  0.00  0.00    +0.000 HD
ENDROOT
BRANCH   3   5
ATOM      5  N   UNL A   1      36.385 -35.138 -31.790  0.00  0.00    -0.264 N 
ATOM      6  H   UNL A   1      36.041 -35.426 -32.666  0.00  0.00    +0.000 HD
BRANCH   5   7
ATOM      7  C   UNL A   1      37.285 -35.894 -30.972  0.00  0.00    +0.058 A 
ATOM      8  C   UNL A   1      38.588 -36.126 -31.457  0.00  0.00    -0.003 A 
ATOM      9  C   UNL A   1      39.449 -36.881 -30.661  0.00  0.00    +0.047 A 
ATOM     10  N   UNL A   1      39.070 -37.436 -29.488  0.00  0.00    -0.251 NA
ATOM     11  C   UNL A   1      37.822 -37.237 -29.040  0.00  0.00    +0.073 A 
ATOM     12  C   UNL A   1      37.468 -37.822 -27.832  0.00  0.00    -0.036 A 
ATOM     13  C   UNL A   1      36.192 -37.676 -27.284  0.00  0.00    -0.060 A 
ATOM     14  C   UNL A   1      35.241 -36.927 -27.959  0.00  0.00    -0.061 A 
ATOM     15  C   UNL A   1      35.574 -36.330 -29.174  0.00  0.00    -0.051 A 
ATOM     16  C   UNL A   1      36.868 -36.472 -29.739  0.00  0.00    +0.023 A 
ATOM     17  C   UNL A   1      40.864 -37.179 -31.087  0.00  0.00    -0.010 C 
ATOM     18  C   UNL A   1      41.393 -36.203 -32.133  0.00  0.00    -0.047 C 
ATOM     19  C   UNL A   1      40.385 -36.061 -33.263  0.00  0.00    -0.049 C 
ATOM     20  C   UNL A   1      39.069 -35.487 -32.738  0.00  0.00    -0.024 C 
ENDBRANCH   5   7
ENDBRANCH   3   5
BRANCH   1  21
ATOM     21  C   UNL A   1      34.457 -32.304 -30.339  0.00  0.00    +0.027 C 
BRANCH  21  22
ATOM     22  C   UNL A   1      33.175 -31.561 -30.712  0.00  0.00    -0.029 C 
BRANCH  22  23
ATOM     23  C   UNL A   1      32.152 -31.558 -29.576  0.00  0.00    +0.012 C 
BRANCH  23  26
ATOM     24  C   UNL A   1      31.447 -33.893 -29.184  0.00  0.00    +0.244 C 
ATOM     25  O   UNL A   1      30.712 -33.924 -30.163  0.00  0.00    -0.270 OA
ATOM     26  N   UNL A   1      32.192 -32.792 -28.815  0.00  0.00    -0.311 N 
ATOM     27  H   UNL A   1      32.766 -32.846 -28.017  0.00  0.00    +0.000 HD
BRANCH  24  30
ATOM     28  C   UNL A   1      31.686 -36.087 -26.092  0.00  0.00    +0.166 A 
ATOM     29  C   UNL A   1      31.597 -34.950 -26.897  0.00  0.00    -0.004 A 
ATOM     30  C   UNL A   1      31.541 -35.083 -28.292  0.00  0.00    +0.044 A 
ATOM     31  C   UNL A   1      31.603 -36.349 -28.891  0.00  0.00    -0.004 A 
ATOM     32  C   UNL A   1      31.697 -37.495 -28.103  0.00  0.00    +0.166 A 
ATOM     33  C   UNL A   1      31.748 -37.352 -26.705  0.00  0.00    +0.204 A 
BRANCH  28  35
ATOM     34  C   UNL A   1      32.740 -35.275 -24.106  0.00  0.00    +0.079 C 
ATOM     35  O   UNL A   1      31.740 -36.074 -24.722  0.00  0.00    -0.491 OA
ENDBRANCH  28  35
BRANCH  32  36
ATOM     36  O   UNL A   1      31.750 -38.777 -28.585  0.00  0.00    -0.491 OA
ATOM     37  C   UNL A   1      30.961 -39.080 -29.729  0.00  0.00    +0.079 C 
ENDBRANCH  32  36
BRANCH  33  38
ATOM     38  O   UNL A   1      31.788 -38.478 -25.911  0.00  0.00    -0.488 OA
ATOM     39  C   UNL A   1      30.460 -38.914 -25.623  0.00  0.00    +0.079 C 
ENDBRANCH  33  38
ENDBRANCH  24  30
ENDBRANCH  23  26
ENDBRANCH  22  23
ENDBRANCH  21  22
ENDBRANCH   1  21
TORSDOF 10
ENDMDL
MODEL 5
REMARK VINA RESULT:    -8.925      5.991      9.003
REMARK INTER + INTRA:         -14.655
REMARK INTER:                 -12.876
REMARK INTRA:                  -1.779
REMARK UNBOUND:                -0.513
REMARK  Name = cpd74.pdb
REMARK  13 active torsions:
REMARK  status: ('A' for Active; 'I' for Inactive)
REMARK    1  A    between atoms: C_1  and  O_2
REMARK    2  A    between atoms: O_2  and  C_3
REMARK    3  A    between atoms: C_5  and  C_6
REMARK    4  A    between atoms: N_8  and  C_9
REMARK    5  A    between atoms: C_9  and  C_10
REMARK    6  A    between atoms: C_10  and  C_11
REMARK    7  A    between atoms: C_11  and  C_12
REMARK    8  A    between atoms: N_14  and  N_15
REMARK    9  A    between atoms: N_15  and  C_16
REMARK   10  A    between atoms: C_31  and  O_32
REMARK   11  A    between atoms: O_32  and  C_33
REMARK   12  A    between atoms: C_34  and  O_35
REMARK   13  A    between atoms: O_35  and  C_36
REMARK                            x       y       z     vdW  Elec       q    Type
REMARK                         _______ _______ _______ _____ _____    ______ ____
ROOT
ATOM      1  C   UNL A   1      34.871 -33.597 -31.200  0.00  0.00    +0.229 C 
ATOM      2  O   UNL A   1      34.097 -34.081 -32.019  0.00  0.00    -0.274 OA
ATOM      3  N   UNL A   1      36.199 -33.976 -31.112  0.00  0.00    -0.236 N 
ATOM      4  H   UNL A   1      36.844 -33.471 -30.567  0.00  0.00    +0.000 HD
ENDROOT
BRANCH   3   5
ATOM      5  N   UNL A   1      36.585 -35.126 -31.845  0.00  0.00    -0.264 N 
ATOM      6  H   UNL A   1      36.273 -35.352 -32.751  0.00  0.00    +0.000 HD
BRANCH   5   7
ATOM      7  C   UNL A   1      37.499 -35.911 -31.071  0.00  0.00    +0.058 A 
ATOM      8  C   UNL A   1      38.783 -36.150 -31.601  0.00  0.00    -0.003 A 
ATOM      9  C   UNL A   1      39.657 -36.934 -30.849  0.00  0.00    +0.047 A 
ATOM     10  N   UNL A   1      39.307 -37.510 -29.677  0.00  0.00    -0.251 NA
ATOM     11  C   UNL A   1      38.075 -37.305 -29.187  0.00  0.00    +0.073 A 
ATOM     12  C   UNL A   1      37.749 -37.912 -27.982  0.00  0.00    -0.036 A 
ATOM     13  C   UNL A   1      36.493 -37.762 -27.393  0.00  0.00    -0.060 A 
ATOM     14  C   UNL A   1      35.532 -36.985 -28.021  0.00  0.00    -0.061 A 
ATOM     15  C   UNL A   1      35.837 -36.366 -29.233  0.00  0.00    -0.051 A 
ATOM     16  C   UNL A   1      37.111 -36.512 -29.840  0.00  0.00    +0.023 A 
ATOM     17  C   UNL A   1      41.054 -37.241 -31.324  0.00  0.00    -0.010 C 
ATOM     18  C   UNL A   1      41.566 -36.249 -32.363  0.00  0.00    -0.047 C 
ATOM     19  C   UNL A   1      40.526 -36.068 -33.459  0.00  0.00    -0.049 C 
ATOM     20  C   UNL A   1      39.234 -35.488 -32.882  0.00  0.00    -0.024 C 
ENDBRANCH   5   7
ENDBRANCH   3   5
BRANCH   1  21
ATOM     21  C   UNL A   1      34.506 -32.499 -30.223  0.00  0.00    +0.027 C 
BRANCH  21  22
ATOM     22  C   UNL A   1      33.018 -32.457 -29.876  0.00  0.00    -0.029 C 
BRANCH  22  23
ATOM     23  C   UNL A   1      32.648 -33.451 -28.775  0.00  0.00    +0.012 C 
BRANCH  23  26
ATOM     24  C   UNL A   1      31.902 -35.578 -29.788  0.00  0.00    +0.244 C 
ATOM     25  O   UNL A   1      30.772 -35.167 -30.022  0.00  0.00    -0.270 OA
ATOM     26  N   UNL A   1      32.887 -34.821 -29.189  0.00  0.00    -0.311 N 
ATOM     27  H   UNL A   1      33.775 -35.220 -29.038  0.00  0.00    +0.000 HD
BRANCH  24  30
ATOM     28  C   UNL A   1      32.665 -39.286 -29.483  0.00  0.00    +0.166 A 
ATOM     29  C   UNL A   1      32.323 -37.978 -29.134  0.00  0.00    -0.004 A 
ATOM     30  C   UNL A   1      32.261 -36.984 -30.121  0.00  0.00    +0.044 A 
ATOM     31  C   UNL A   1      32.568 -37.285 -31.457  0.00  0.00    -0.004 A 
ATOM     32  C   UNL A   1      32.915 -38.585 -31.821  0.00  0.00    +0.166 A 
ATOM     33  C   UNL A   1      32.970 -39.575 -30.825  0.00  0.00    +0.204 A 
BRANCH  28  35
ATOM     34  C   UNL A   1      33.785 -40.301 -27.631  0.00  0.00    +0.079 C 
ATOM     35  O   UNL A   1      32.750 -40.335 -28.602  0.00  0.00    -0.491 OA
ENDBRANCH  28  35
BRANCH  32  36
ATOM     36  O   UNL A   1      33.219 -38.987 -33.097  0.00  0.00    -0.491 OA
ATOM     37  C   UNL A   1      32.258 -38.725 -34.112  0.00  0.00    +0.079 C 
ENDBRANCH  32  36
BRANCH  33  38
ATOM     38  O   UNL A   1      33.261 -40.875 -31.179  0.00  0.00    -0.488 OA
ATOM     39  C   UNL A   1      34.675 -41.067 -31.195  0.00  0.00    +0.079 C 
ENDBRANCH  33  38
ENDBRANCH  24  30
ENDBRANCH  23  26
ENDBRANCH  22  23
ENDBRANCH  21  22
ENDBRANCH   1  21
TORSDOF 10
ENDMDL
MODEL 6
REMARK VINA RESULT:    -8.741     16.950     19.516
REMARK INTER + INTRA:         -14.363
REMARK INTER:                 -13.428
REMARK INTRA:                  -0.935
REMARK UNBOUND:                -0.513
REMARK  Name = cpd74.pdb
REMARK  13 active torsions:
REMARK  status: ('A' for Active; 'I' for Inactive)
REMARK    1  A    between atoms: C_1  and  O_2
REMARK    2  A    between atoms: O_2  and  C_3
REMARK    3  A    between atoms: C_5  and  C_6
REMARK    4  A    between atoms: N_8  and  C_9
REMARK    5  A    between atoms: C_9  and  C_10
REMARK    6  A    between atoms: C_10  and  C_11
REMARK    7  A    between atoms: C_11  and  C_12
REMARK    8  A    between atoms: N_14  and  N_15
REMARK    9  A    between atoms: N_15  and  C_16
REMARK   10  A    between atoms: C_31  and  O_32
REMARK   11  A    between atoms: O_32  and  C_33
REMARK   12  A    between atoms: C_34  and  O_35
REMARK   13  A    between atoms: O_35  and  C_36
REMARK                            x       y       z     vdW  Elec       q    Type
REMARK                         _______ _______ _______ _____ _____    ______ ____
ROOT
ATOM      1  C   UNL A   1      47.183 -19.195 -35.982  0.00  0.00    +0.229 C 
ATOM      2  O   UNL A   1      48.270 -18.645 -35.845  0.00  0.00    -0.274 OA
ATOM      3  N   UNL A   1      46.841 -19.901 -37.122  0.00  0.00    -0.236 N 
ATOM      4  H   UNL A   1      46.039 -20.469 -37.156  0.00  0.00    +0.000 HD
ENDROOT
BRANCH   3   5
ATOM      5  N   UNL A   1      47.703 -19.766 -38.239  0.00  0.00    -0.264 N 
ATOM      6  H   UNL A   1      48.671 -19.595 -38.190  0.00  0.00    +0.000 HD
BRANCH   5   7
ATOM      7  C   UNL A   1      46.955 -19.917 -39.451  0.00  0.00    +0.058 A 
ATOM      8  C   UNL A   1      46.061 -18.888 -39.811  0.00  0.00    -0.003 A 
ATOM      9  C   UNL A   1      45.321 -19.054 -40.981  0.00  0.00    +0.047 A 
ATOM     10  N   UNL A   1      45.386 -20.170 -41.740  0.00  0.00    -0.251 NA
ATOM     11  C   UNL A   1      46.217 -21.160 -41.383  0.00  0.00    +0.073 A 
ATOM     12  C   UNL A   1      46.259 -22.292 -42.186  0.00  0.00    -0.036 A 
ATOM     13  C   UNL A   1      47.087 -23.377 -41.896  0.00  0.00    -0.060 A 
ATOM     14  C   UNL A   1      47.898 -23.335 -40.773  0.00  0.00    -0.061 A 
ATOM     15  C   UNL A   1      47.874 -22.208 -39.951  0.00  0.00    -0.051 A 
ATOM     16  C   UNL A   1      47.035 -21.100 -40.238  0.00  0.00    +0.023 A 
ATOM     17  C   UNL A   1      44.345 -18.008 -41.456  0.00  0.00    -0.010 C 
ATOM     18  C   UNL A   1      44.617 -16.625 -40.874  0.00  0.00    -0.047 C 
ATOM     19  C   UNL A   1      44.787 -16.725 -39.365  0.00  0.00    -0.049 C 
ATOM     20  C   UNL A   1      45.990 -17.603 -39.019  0.00  0.00    -0.024 C 
ENDBRANCH   5   7
ENDBRANCH   3   5
BRANCH   1  21
ATOM     21  C   UNL A   1      46.100 -19.227 -34.923  0.00  0.00    +0.027 C 
BRANCH  21  22
ATOM     22  C   UNL A   1      45.713 -17.844 -34.401  0.00  0.00    -0.029 C 
BRANCH  22  23
ATOM     23  C   UNL A   1      44.254 -17.497 -34.697  0.00  0.00    +0.012 C 
BRANCH  23  26
ATOM     24  C   UNL A   1      42.691 -19.061 -33.595  0.00  0.00    +0.244 C 
ATOM     25  O   UNL A   1      42.693 -18.449 -32.535  0.00  0.00    -0.270 OA
ATOM     26  N   UNL A   1      43.413 -18.679 -34.707  0.00  0.00    -0.311 N 
ATOM     27  H   UNL A   1      43.356 -19.221 -35.527  0.00  0.00    +0.000 HD
BRANCH  24  30
ATOM     28  C   UNL A   1      40.705 -21.957 -35.042  0.00  0.00    +0.166 A 
ATOM     29  C   UNL A   1      41.440 -20.773 -34.963  0.00  0.00    -0.004 A 
ATOM     30  C   UNL A   1      41.905 -20.321 -33.720  0.00  0.00    +0.044 A 
ATOM     31  C   UNL A   1      41.615 -21.033 -32.547  0.00  0.00    -0.004 A 
ATOM     32  C   UNL A   1      40.879 -22.215 -32.608  0.00  0.00    +0.166 A 
ATOM     33  C   UNL A   1      40.420 -22.663 -33.859  0.00  0.00    +0.204 A 
BRANCH  28  35
ATOM     34  C   UNL A   1      39.798 -21.598 -37.225  0.00  0.00    +0.079 C 
ATOM     35  O   UNL A   1      40.207 -22.494 -36.203  0.00  0.00    -0.491 OA
ENDBRANCH  28  35
BRANCH  32  36
ATOM     36  O   UNL A   1      40.553 -22.992 -31.526  0.00  0.00    -0.491 OA
ATOM     37  C   UNL A   1      41.590 -23.772 -30.943  0.00  0.00    +0.079 C 
ENDBRANCH  32  36
BRANCH  33  38
ATOM     38  O   UNL A   1      39.736 -23.856 -33.940  0.00  0.00    -0.488 OA
ATOM     39  C   UNL A   1      38.331 -23.615 -33.861  0.00  0.00    +0.079 C 
ENDBRANCH  33  38
ENDBRANCH  24  30
ENDBRANCH  23  26
ENDBRANCH  22  23
ENDBRANCH  21  22
ENDBRANCH   1  21
TORSDOF 10
ENDMDL
MODEL 7
REMARK VINA RESULT:    -8.732      6.091      9.490
REMARK INTER + INTRA:         -14.350
REMARK INTER:                 -12.853
REMARK INTRA:                  -1.497
REMARK UNBOUND:                -0.513
REMARK  Name = cpd74.pdb
REMARK  13 active torsions:
REMARK  status: ('A' for Active; 'I' for Inactive)
REMARK    1  A    between atoms: C_1  and  O_2
REMARK    2  A    between atoms: O_2  and  C_3
REMARK    3  A    between atoms: C_5  and  C_6
REMARK    4  A    between atoms: N_8  and  C_9
REMARK    5  A    between atoms: C_9  and  C_10
REMARK    6  A    between atoms: C_10  and  C_11
REMARK    7  A    between atoms: C_11  and  C_12
REMARK    8  A    between atoms: N_14  and  N_15
REMARK    9  A    between atoms: N_15  and  C_16
REMARK   10  A    between atoms: C_31  and  O_32
REMARK   11  A    between atoms: O_32  and  C_33
REMARK   12  A    between atoms: C_34  and  O_35
REMARK   13  A    between atoms: O_35  and  C_36
REMARK                            x       y       z     vdW  Elec       q    Type
REMARK                         _______ _______ _______ _____ _____    ______ ____
ROOT
ATOM      1  C   UNL A   1      34.654 -33.486 -31.393  0.00  0.00    +0.229 C 
ATOM      2  O   UNL A   1      34.097 -33.815 -32.434  0.00  0.00    -0.274 OA
ATOM      3  N   UNL A   1      35.911 -33.948 -31.040  0.00  0.00    -0.236 N 
ATOM      4  H   UNL A   1      36.412 -33.555 -30.290  0.00  0.00    +0.000 HD
ENDROOT
BRANCH   3   5
ATOM      5  N   UNL A   1      36.440 -35.013 -31.811  0.00  0.00    -0.264 N 
ATOM      6  H   UNL A   1      36.240 -35.178 -32.760  0.00  0.00    +0.000 HD
BRANCH   5   7
ATOM      7  C   UNL A   1      37.309 -35.813 -31.001  0.00  0.00    +0.058 A 
ATOM      8  C   UNL A   1      38.595 -36.107 -31.499  0.00  0.00    -0.003 A 
ATOM      9  C   UNL A   1      39.425 -36.905 -30.713  0.00  0.00    +0.047 A 
ATOM     10  N   UNL A   1      39.030 -37.444 -29.537  0.00  0.00    -0.251 NA
ATOM     11  C   UNL A   1      37.797 -37.185 -29.078  0.00  0.00    +0.073 A 
ATOM     12  C   UNL A   1      37.426 -37.755 -27.867  0.00  0.00    -0.036 A 
ATOM     13  C   UNL A   1      36.164 -37.549 -27.308  0.00  0.00    -0.060 A 
ATOM     14  C   UNL A   1      35.244 -36.753 -27.972  0.00  0.00    -0.061 A 
ATOM     15  C   UNL A   1      35.595 -36.170 -29.190  0.00  0.00    -0.051 A 
ATOM     16  C   UNL A   1      36.876 -36.373 -29.766  0.00  0.00    +0.023 A 
ATOM     17  C   UNL A   1      40.820 -37.270 -31.152  0.00  0.00    -0.010 C 
ATOM     18  C   UNL A   1      41.387 -36.319 -32.200  0.00  0.00    -0.047 C 
ATOM     19  C   UNL A   1      40.377 -36.125 -33.321  0.00  0.00    -0.049 C 
ATOM     20  C   UNL A   1      39.095 -35.489 -32.783  0.00  0.00    -0.024 C 
ENDBRANCH   5   7
ENDBRANCH   3   5
BRANCH   1  21
ATOM     21  C   UNL A   1      34.084 -32.505 -30.389  0.00  0.00    +0.027 C 
BRANCH  21  22
ATOM     22  C   UNL A   1      33.279 -33.168 -29.273  0.00  0.00    -0.029 C 
BRANCH  22  23
ATOM     23  C   UNL A   1      31.919 -33.674 -29.758  0.00  0.00    +0.012 C 
BRANCH  23  26
ATOM     24  C   UNL A   1      32.071 -36.093 -30.237  0.00  0.00    +0.244 C 
ATOM     25  O   UNL A   1      31.961 -36.419 -29.062  0.00  0.00    -0.270 OA
ATOM     26  N   UNL A   1      32.059 -34.786 -30.678  0.00  0.00    -0.311 N 
ATOM     27  H   UNL A   1      32.147 -34.603 -31.642  0.00  0.00    +0.000 HD
BRANCH  24  30
ATOM     28  C   UNL A   1      31.851 -38.054 -33.483  0.00  0.00    +0.166 A 
ATOM     29  C   UNL A   1      31.644 -37.054 -32.531  0.00  0.00    -0.004 A 
ATOM     30  C   UNL A   1      32.269 -37.139 -31.279  0.00  0.00    +0.044 A 
ATOM     31  C   UNL A   1      33.081 -38.238 -30.960  0.00  0.00    -0.004 A 
ATOM     32  C   UNL A   1      33.296 -39.247 -31.897  0.00  0.00    +0.166 A 
ATOM     33  C   UNL A   1      32.668 -39.151 -33.152  0.00  0.00    +0.204 A 
BRANCH  28  35
ATOM     34  C   UNL A   1      29.886 -38.197 -34.836  0.00  0.00    +0.079 C 
ATOM     35  O   UNL A   1      31.297 -38.069 -34.737  0.00  0.00    -0.491 OA
ENDBRANCH  28  35
BRANCH  32  36
ATOM     36  O   UNL A   1      34.080 -40.353 -31.693  0.00  0.00    -0.491 OA
ATOM     37  C   UNL A   1      35.455 -40.136 -31.398  0.00  0.00    +0.079 C 
ENDBRANCH  32  36
BRANCH  33  38
ATOM     38  O   UNL A   1      32.912 -40.115 -34.106  0.00  0.00    -0.488 OA
ATOM     39  C   UNL A   1      31.985 -41.189 -33.956  0.00  0.00    +0.079 C 
ENDBRANCH  33  38
ENDBRANCH  24  30
ENDBRANCH  23  26
ENDBRANCH  22  23
ENDBRANCH  21  22
ENDBRANCH   1  21
TORSDOF 10
ENDMDL
MODEL 8
REMARK VINA RESULT:    -8.548      6.069     10.391
REMARK INTER + INTRA:         -14.057
REMARK INTER:                 -13.197
REMARK INTRA:                  -0.860
REMARK UNBOUND:                -0.513
REMARK  Name = cpd74.pdb
REMARK  13 active torsions:
REMARK  status: ('A' for Active; 'I' for Inactive)
REMARK    1  A    between atoms: C_1  and  O_2
REMARK    2  A    between atoms: O_2  and  C_3
REMARK    3  A    between atoms: C_5  and  C_6
REMARK    4  A    between atoms: N_8  and  C_9
REMARK    5  A    between atoms: C_9  and  C_10
REMARK    6  A    between atoms: C_10  and  C_11
REMARK    7  A    between atoms: C_11  and  C_12
REMARK    8  A    between atoms: N_14  and  N_15
REMARK    9  A    between atoms: N_15  and  C_16
REMARK   10  A    between atoms: C_31  and  O_32
REMARK   11  A    between atoms: O_32  and  C_33
REMARK   12  A    between atoms: C_34  and  O_35
REMARK   13  A    between atoms: O_35  and  C_36
REMARK                            x       y       z     vdW  Elec       q    Type
REMARK                         _______ _______ _______ _____ _____    ______ ____
ROOT
ATOM      1  C   UNL A   1      35.956 -39.841 -28.555  0.00  0.00    +0.229 C 
ATOM      2  O   UNL A   1      35.256 -39.379 -27.661  0.00  0.00    -0.274 OA
ATOM      3  N   UNL A   1      37.194 -39.315 -28.882  0.00  0.00    -0.236 N 
ATOM      4  H   UNL A   1      37.812 -39.788 -29.485  0.00  0.00    +0.000 HD
ENDROOT
BRANCH   3   5
ATOM      5  N   UNL A   1      37.529 -38.063 -28.308  0.00  0.00    -0.264 N 
ATOM      6  H   UNL A   1      37.674 -37.902 -27.348  0.00  0.00    +0.000 HD
BRANCH   5   7
ATOM      7  C   UNL A   1      37.624 -37.069 -29.333  0.00  0.00    +0.058 A 
ATOM      8  C   UNL A   1      38.841 -36.953 -30.035  0.00  0.00    -0.003 A 
ATOM      9  C   UNL A   1      38.930 -35.967 -31.016  0.00  0.00    +0.047 A 
ATOM     10  N   UNL A   1      37.931 -35.096 -31.277  0.00  0.00    -0.251 NA
ATOM     11  C   UNL A   1      36.783 -35.188 -30.590  0.00  0.00    +0.073 A 
ATOM     12  C   UNL A   1      35.777 -34.277 -30.884  0.00  0.00    -0.036 A 
ATOM     13  C   UNL A   1      34.550 -34.289 -30.221  0.00  0.00    -0.060 A 
ATOM     14  C   UNL A   1      34.314 -35.236 -29.237  0.00  0.00    -0.061 A 
ATOM     15  C   UNL A   1      35.309 -36.162 -28.925  0.00  0.00    -0.051 A 
ATOM     16  C   UNL A   1      36.561 -36.158 -29.593  0.00  0.00    +0.023 A 
ATOM     17  C   UNL A   1      40.185 -35.769 -31.828  0.00  0.00    -0.010 C 
ATOM     18  C   UNL A   1      41.087 -36.998 -31.848  0.00  0.00    -0.047 C 
ATOM     19  C   UNL A   1      41.298 -37.507 -30.430  0.00  0.00    -0.049 C 
ATOM     20  C   UNL A   1      39.967 -37.935 -29.811  0.00  0.00    -0.024 C 
ENDBRANCH   5   7
ENDBRANCH   3   5
BRANCH   1  21
ATOM     21  C   UNL A   1      35.599 -41.062 -29.378  0.00  0.00    +0.027 C 
BRANCH  21  22
ATOM     22  C   UNL A   1      35.850 -40.887 -30.875  0.00  0.00    -0.029 C 
BRANCH  22  23
ATOM     23  C   UNL A   1      34.773 -40.038 -31.551  0.00  0.00    +0.012 C 
BRANCH  23  26
ATOM     24  C   UNL A   1      33.604 -41.617 -33.049  0.00  0.00    +0.244 C 
ATOM     25  O   UNL A   1      33.066 -42.221 -32.130  0.00  0.00    -0.270 OA
ATOM     26  N   UNL A   1      34.448 -40.540 -32.872  0.00  0.00    -0.311 N 
ATOM     27  H   UNL A   1      34.838 -40.101 -33.662  0.00  0.00    +0.000 HD
BRANCH  24  30
ATOM     28  C   UNL A   1      33.294 -43.794 -36.146  0.00  0.00    +0.166 A 
ATOM     29  C   UNL A   1      33.501 -43.412 -34.819  0.00  0.00    -0.004 A 
ATOM     30  C   UNL A   1      33.389 -42.063 -34.454  0.00  0.00    +0.044 A 
ATOM     31  C   UNL A   1      33.097 -41.085 -35.416  0.00  0.00    -0.004 A 
ATOM     32  C   UNL A   1      32.892 -41.448 -36.746  0.00  0.00    +0.166 A 
ATOM     33  C   UNL A   1      33.003 -42.804 -37.102  0.00  0.00    +0.204 A 
BRANCH  28  35
ATOM     34  C   UNL A   1      34.047 -46.037 -35.807  0.00  0.00    +0.079 C 
ATOM     35  O   UNL A   1      33.372 -45.082 -36.612  0.00  0.00    -0.491 OA
ENDBRANCH  28  35
BRANCH  32  36
ATOM     36  O   UNL A   1      32.590 -40.575 -37.759  0.00  0.00    -0.491 OA
ATOM     37  C   UNL A   1      31.305 -39.966 -37.738  0.00  0.00    +0.079 C 
ENDBRANCH  32  36
BRANCH  33  38
ATOM     38  O   UNL A   1      32.751 -43.183 -38.403  0.00  0.00    -0.488 OA
ATOM     39  C   UNL A   1      31.394 -43.605 -38.530  0.00  0.00    +0.079 C 
ENDBRANCH  33  38
ENDBRANCH  24  30
ENDBRANCH  23  26
ENDBRANCH  22  23
ENDBRANCH  21  22
ENDBRANCH   1  21
TORSDOF 10
ENDMDL
MODEL 9
REMARK VINA RESULT:    -8.534      5.616      9.006
REMARK INTER + INTRA:         -14.036
REMARK INTER:                 -11.657
REMARK INTRA:                  -2.379
REMARK UNBOUND:                -0.513
REMARK  Name = cpd74.pdb
REMARK  13 active torsions:
REMARK  status: ('A' for Active; 'I' for Inactive)
REMARK    1  A    between atoms: C_1  and  O_2
REMARK    2  A    between atoms: O_2  and  C_3
REMARK    3  A    between atoms: C_5  and  C_6
REMARK    4  A    between atoms: N_8  and  C_9
REMARK    5  A    between atoms: C_9  and  C_10
REMARK    6  A    between atoms: C_10  and  C_11
REMARK    7  A    between atoms: C_11  and  C_12
REMARK    8  A    between atoms: N_14  and  N_15
REMARK    9  A    between atoms: N_15  and  C_16
REMARK   10  A    between atoms: C_31  and  O_32
REMARK   11  A    between atoms: O_32  and  C_33
REMARK   12  A    between atoms: C_34  and  O_35
REMARK   13  A    between atoms: O_35  and  C_36
REMARK                            x       y       z     vdW  Elec       q    Type
REMARK                         _______ _______ _______ _____ _____    ______ ____
ROOT
ATOM      1  C   UNL A   1      36.338 -39.793 -28.512  0.00  0.00    +0.229 C 
ATOM      2  O   UNL A   1      35.640 -39.226 -27.679  0.00  0.00    -0.274 OA
ATOM      3  N   UNL A   1      37.621 -39.373 -28.822  0.00  0.00    -0.236 N 
ATOM      4  H   UNL A   1      38.226 -39.925 -29.367  0.00  0.00    +0.000 HD
ENDROOT
BRANCH   3   5
ATOM      5  N   UNL A   1      38.019 -38.111 -28.317  0.00  0.00    -0.264 N 
ATOM      6  H   UNL A   1      38.145 -37.896 -27.365  0.00  0.00    +0.000 HD
BRANCH   5   7
ATOM      7  C   UNL A   1      38.213 -37.193 -29.399  0.00  0.00    +0.058 A 
ATOM      8  C   UNL A   1      39.466 -37.183 -30.045  0.00  0.00    -0.003 A 
ATOM      9  C   UNL A   1      39.650 -36.271 -31.083  0.00  0.00    +0.047 A 
ATOM     10  N   UNL A   1      38.709 -35.374 -31.451  0.00  0.00    -0.251 NA
ATOM     11  C   UNL A   1      37.527 -35.366 -30.818  0.00  0.00    +0.073 A 
ATOM     12  C   UNL A   1      36.583 -34.430 -31.221  0.00  0.00    -0.036 A 
ATOM     13  C   UNL A   1      35.326 -34.340 -30.622  0.00  0.00    -0.060 A 
ATOM     14  C   UNL A   1      34.998 -35.206 -29.591  0.00  0.00    -0.061 A 
ATOM     15  C   UNL A   1      35.930 -36.154 -29.168  0.00  0.00    -0.051 A 
ATOM     16  C   UNL A   1      37.210 -36.254 -29.771  0.00  0.00    +0.023 A 
ATOM     17  C   UNL A   1      40.951 -36.188 -31.842  0.00  0.00    -0.010 C 
ATOM     18  C   UNL A   1      41.790 -37.456 -31.735  0.00  0.00    -0.047 C 
ATOM     19  C   UNL A   1      41.908 -37.877 -30.278  0.00  0.00    -0.049 C 
ATOM     20  C   UNL A   1      40.529 -38.199 -29.701  0.00  0.00    -0.024 C 
ENDBRANCH   5   7
ENDBRANCH   3   5
BRANCH   1  21
ATOM     21  C   UNL A   1      35.928 -41.040 -29.268  0.00  0.00    +0.027 C 
BRANCH  21  22
ATOM     22  C   UNL A   1      34.714 -41.748 -28.668  0.00  0.00    -0.029 C 
BRANCH  22  23
ATOM     23  C   UNL A   1      33.427 -41.451 -29.438  0.00  0.00    +0.012 C 
BRANCH  23  26
ATOM     24  C   UNL A   1      32.885 -39.127 -30.076  0.00  0.00    +0.244 C 
ATOM     25  O   UNL A   1      33.277 -39.262 -31.227  0.00  0.00    -0.270 OA
ATOM     26  N   UNL A   1      32.912 -40.132 -29.130  0.00  0.00    -0.311 N 
ATOM     27  H   UNL A   1      32.572 -39.948 -28.224  0.00  0.00    +0.000 HD
BRANCH  24  30
ATOM     28  C   UNL A   1      31.453 -35.609 -30.064  0.00  0.00    +0.166 A 
ATOM     29  C   UNL A   1      31.923 -36.838 -30.529  0.00  0.00    -0.004 A 
ATOM     30  C   UNL A   1      32.375 -37.804 -29.618  0.00  0.00    +0.044 A 
ATOM     31  C   UNL A   1      32.387 -37.536 -28.241  0.00  0.00    -0.004 A 
ATOM     32  C   UNL A   1      31.926 -36.312 -27.760  0.00  0.00    +0.166 A 
ATOM     33  C   UNL A   1      31.471 -35.351 -28.681  0.00  0.00    +0.204 A 
BRANCH  28  35
ATOM     34  C   UNL A   1      31.875 -34.038 -31.816  0.00  0.00    +0.079 C 
ATOM     35  O   UNL A   1      30.984 -34.597 -30.862  0.00  0.00    -0.491 OA
ENDBRANCH  28  35
BRANCH  32  36
ATOM     36  O   UNL A   1      31.882 -35.955 -26.437  0.00  0.00    -0.491 OA
ATOM     37  C   UNL A   1      32.703 -36.685 -25.534  0.00  0.00    +0.079 C 
ENDBRANCH  32  36
BRANCH  33  38
ATOM     38  O   UNL A   1      30.964 -34.157 -28.217  0.00  0.00    -0.488 OA
ATOM     39  C   UNL A   1      32.000 -33.177 -28.169  0.00  0.00    +0.079 C 
ENDBRANCH  33  38
ENDBRANCH  24  30
ENDBRANCH  23  26
ENDBRANCH  22  23
ENDBRANCH  21  22
ENDBRANCH   1  21
TORSDOF 10
ENDMDL
MODEL 10
REMARK VINA RESULT:    -8.521      5.458      8.747
REMARK INTER + INTRA:         -14.016
REMARK INTER:                 -11.911
REMARK INTRA:                  -2.104
REMARK UNBOUND:                -0.513
REMARK  Name = cpd74.pdb
REMARK  13 active torsions:
REMARK  status: ('A' for Active; 'I' for Inactive)
REMARK    1  A    between atoms: C_1  and  O_2
REMARK    2  A    between atoms: O_2  and  C_3
REMARK    3  A    between atoms: C_5  and  C_6
REMARK    4  A    between atoms: N_8  and  C_9
REMARK    5  A    between atoms: C_9  and  C_10
REMARK    6  A    between atoms: C_10  and  C_11
REMARK    7  A    between atoms: C_11  and  C_12
REMARK    8  A    between atoms: N_14  and  N_15
REMARK    9  A    between atoms: N_15  and  C_16
REMARK   10  A    between atoms: C_31  and  O_32
REMARK   11  A    between atoms: O_32  and  C_33
REMARK   12  A    between atoms: C_34  and  O_35
REMARK   13  A    between atoms: O_35  and  C_36
REMARK                            x       y       z     vdW  Elec       q    Type
REMARK                         _______ _______ _______ _____ _____    ______ ____
ROOT
ATOM      1  C   UNL A   1      36.659 -39.694 -28.620  0.00  0.00    +0.229 C 
ATOM      2  O   UNL A   1      36.040 -39.107 -27.738  0.00  0.00    -0.274 OA
ATOM      3  N   UNL A   1      37.927 -39.312 -29.024  0.00  0.00    -0.236 N 
ATOM      4  H   UNL A   1      38.474 -39.882 -29.611  0.00  0.00    +0.000 HD
ENDROOT
BRANCH   3   5
ATOM      5  N   UNL A   1      38.398 -38.062 -28.552  0.00  0.00    -0.264 N 
ATOM      6  H   UNL A   1      38.632 -37.861 -27.618  0.00  0.00    +0.000 HD
BRANCH   5   7
ATOM      7  C   UNL A   1      38.483 -37.134 -29.639  0.00  0.00    +0.058 A 
ATOM      8  C   UNL A   1      39.683 -37.085 -30.378  0.00  0.00    -0.003 A 
ATOM      9  C   UNL A   1      39.764 -36.162 -31.420  0.00  0.00    +0.047 A 
ATOM     10  N   UNL A   1      38.773 -35.290 -31.709  0.00  0.00    -0.251 NA
ATOM     11  C   UNL A   1      37.642 -35.319 -30.988  0.00  0.00    +0.073 A 
ATOM     12  C   UNL A   1      36.645 -34.408 -31.313  0.00  0.00    -0.036 A 
ATOM     13  C   UNL A   1      35.435 -34.356 -30.620  0.00  0.00    -0.060 A 
ATOM     14  C   UNL A   1      35.209 -35.237 -29.573  0.00  0.00    -0.061 A 
ATOM     15  C   UNL A   1      36.196 -36.160 -29.229  0.00  0.00    -0.051 A 
ATOM     16  C   UNL A   1      37.430 -36.221 -29.928  0.00  0.00    +0.023 A 
ATOM     17  C   UNL A   1      41.000 -36.038 -32.274  0.00  0.00    -0.010 C 
ATOM     18  C   UNL A   1      41.880 -37.283 -32.241  0.00  0.00    -0.047 C 
ATOM     19  C   UNL A   1      42.119 -37.707 -30.800  0.00  0.00    -0.049 C 
ATOM     20  C   UNL A   1      40.798 -38.072 -30.122  0.00  0.00    -0.024 C 
ENDBRANCH   5   7
ENDBRANCH   3   5
BRANCH   1  21
ATOM     21  C   UNL A   1      36.159 -40.929 -29.340  0.00  0.00    +0.027 C 
BRANCH  21  22
ATOM     22  C   UNL A   1      35.158 -41.749 -28.527  0.00  0.00    -0.029 C 
BRANCH  22  23
ATOM     23  C   UNL A   1      33.725 -41.588 -29.035  0.00  0.00    +0.012 C 
BRANCH  23  26
ATOM     24  C   UNL A   1      32.788 -39.470 -29.893  0.00  0.00    +0.244 C 
ATOM     25  O   UNL A   1      32.759 -39.855 -31.055  0.00  0.00    -0.270 OA
ATOM     26  N   UNL A   1      33.236 -40.237 -28.838  0.00  0.00    -0.311 N 
ATOM     27  H   UNL A   1      33.223 -39.859 -27.929  0.00  0.00    +0.000 HD
BRANCH  24  30
ATOM     28  C   UNL A   1      31.636 -36.397 -27.979  0.00  0.00    +0.166 A 
ATOM     29  C   UNL A   1      32.038 -37.706 -28.251  0.00  0.00    -0.004 A 
ATOM     30  C   UNL A   1      32.357 -38.082 -29.564  0.00  0.00    +0.044 A 
ATOM     31  C   UNL A   1      32.249 -37.161 -30.616  0.00  0.00    -0.004 A 
ATOM     32  C   UNL A   1      31.845 -35.851 -30.363  0.00  0.00    +0.166 A 
ATOM     33  C   UNL A   1      31.532 -35.482 -29.043  0.00  0.00    +0.204 A 
BRANCH  28  35
ATOM     34  C   UNL A   1      32.326 -35.893 -25.747  0.00  0.00    +0.079 C 
ATOM     35  O   UNL A   1      31.307 -35.921 -26.736  0.00  0.00    -0.491 OA
ENDBRANCH  28  35
BRANCH  32  36
ATOM     36  O   UNL A   1      31.721 -34.871 -31.314  0.00  0.00    -0.491 OA
ATOM     37  C   UNL A   1      31.989 -35.230 -32.664  0.00  0.00    +0.079 C 
ENDBRANCH  32  36
BRANCH  33  38
ATOM     38  O   UNL A   1      31.182 -34.178 -28.771  0.00  0.00    -0.488 OA
ATOM     39  C   UNL A   1      32.358 -33.390 -28.586  0.00  0.00    +0.079 C 
ENDBRANCH  33  38
ENDBRANCH  24  30
ENDBRANCH  23  26
ENDBRANCH  22  23
ENDBRANCH  21  22
ENDBRANCH   1  21
TORSDOF 10
ENDMDL
MODEL 11
REMARK VINA RESULT:    -8.438      5.473      8.833
REMARK INTER + INTRA:         -13.884
REMARK INTER:                 -11.859
REMARK INTRA:                  -2.024
REMARK UNBOUND:                -0.513
REMARK  Name = cpd74.pdb
REMARK  13 active torsions:
REMARK  status: ('A' for Active; 'I' for Inactive)
REMARK    1  A    between atoms: C_1  and  O_2
REMARK    2  A    between atoms: O_2  and  C_3
REMARK    3  A    between atoms: C_5  and  C_6
REMARK    4  A    between atoms: N_8  and  C_9
REMARK    5  A    between atoms: C_9  and  C_10
REMARK    6  A    between atoms: C_10  and  C_11
REMARK    7  A    between atoms: C_11  and  C_12
REMARK    8  A    between atoms: N_14  and  N_15
REMARK    9  A    between atoms: N_15  and  C_16
REMARK   10  A    between atoms: C_31  and  O_32
REMARK   11  A    between atoms: O_32  and  C_33
REMARK   12  A    between atoms: C_34  and  O_35
REMARK   13  A    between atoms: O_35  and  C_36
REMARK                            x       y       z     vdW  Elec       q    Type
REMARK                         _______ _______ _______ _____ _____    ______ ____
ROOT
ATOM      1  C   UNL A   1      36.651 -39.753 -28.663  0.00  0.00    +0.229 C 
ATOM      2  O   UNL A   1      36.031 -39.240 -27.738  0.00  0.00    -0.274 OA
ATOM      3  N   UNL A   1      37.884 -39.287 -29.086  0.00  0.00    -0.236 N 
ATOM      4  H   UNL A   1      38.441 -39.799 -29.715  0.00  0.00    +0.000 HD
ENDROOT
BRANCH   3   5
ATOM      5  N   UNL A   1      38.305 -38.035 -28.571  0.00  0.00    -0.264 N 
ATOM      6  H   UNL A   1      38.400 -37.820 -27.615  0.00  0.00    +0.000 HD
BRANCH   5   7
ATOM      7  C   UNL A   1      38.572 -37.131 -29.648  0.00  0.00    +0.058 A 
ATOM      8  C   UNL A   1      37.562 -36.217 -30.014  0.00  0.00    -0.003 A 
ATOM      9  C   UNL A   1      37.825 -35.357 -31.079  0.00  0.00    +0.047 A 
ATOM     10  N   UNL A   1      38.968 -35.401 -31.797  0.00  0.00    -0.251 NA
ATOM     11  C   UNL A   1      39.917 -36.289 -31.466  0.00  0.00    +0.073 A 
ATOM     12  C   UNL A   1      41.080 -36.308 -32.226  0.00  0.00    -0.036 A 
ATOM     13  C   UNL A   1      42.122 -37.197 -31.963  0.00  0.00    -0.060 A 
ATOM     14  C   UNL A   1      42.006 -38.095 -30.914  0.00  0.00    -0.061 A 
ATOM     15  C   UNL A   1      40.848 -38.094 -30.136  0.00  0.00    -0.051 A 
ATOM     16  C   UNL A   1      39.782 -37.194 -30.396  0.00  0.00    +0.023 A 
ATOM     17  C   UNL A   1      36.814 -34.338 -31.541  0.00  0.00    -0.010 C 
ATOM     18  C   UNL A   1      35.775 -33.999 -30.478  0.00  0.00    -0.047 C 
ATOM     19  C   UNL A   1      35.195 -35.279 -29.895  0.00  0.00    -0.049 C 
ATOM     20  C   UNL A   1      36.289 -36.099 -29.210  0.00  0.00    -0.024 C 
ENDBRANCH   5   7
ENDBRANCH   3   5
BRANCH   1  21
ATOM     21  C   UNL A   1      36.192 -40.979 -29.425  0.00  0.00    +0.027 C 
BRANCH  21  22
ATOM     22  C   UNL A   1      35.847 -40.698 -30.887  0.00  0.00    -0.029 C 
BRANCH  22  23
ATOM     23  C   UNL A   1      34.339 -40.694 -31.139  0.00  0.00    +0.012 C 
BRANCH  23  26
ATOM     24  C   UNL A   1      33.057 -38.992 -29.888  0.00  0.00    +0.244 C 
ATOM     25  O   UNL A   1      32.842 -39.732 -28.937  0.00  0.00    -0.270 OA
ATOM     26  N   UNL A   1      33.777 -39.364 -31.005  0.00  0.00    -0.311 N 
ATOM     27  H   UNL A   1      33.914 -38.710 -31.728  0.00  0.00    +0.000 HD
BRANCH  24  30
ATOM     28  C   UNL A   1      31.423 -35.746 -28.784  0.00  0.00    +0.166 A 
ATOM     29  C   UNL A   1      31.943 -37.041 -28.740  0.00  0.00    -0.004 A 
ATOM     30  C   UNL A   1      32.494 -37.613 -29.895  0.00  0.00    +0.044 A 
ATOM     31  C   UNL A   1      32.503 -36.907 -31.107  0.00  0.00    -0.004 A 
ATOM     32  C   UNL A   1      31.983 -35.615 -31.170  0.00  0.00    +0.166 A 
ATOM     33  C   UNL A   1      31.437 -35.047 -30.005  0.00  0.00    +0.204 A 
BRANCH  28  35
ATOM     34  C   UNL A   1      29.515 -35.375 -27.393  0.00  0.00    +0.079 C 
ATOM     35  O   UNL A   1      30.867 -35.088 -27.716  0.00  0.00    -0.491 OA
ENDBRANCH  28  35
BRANCH  32  36
ATOM     36  O   UNL A   1      31.955 -34.835 -32.298  0.00  0.00    -0.491 OA
ATOM     37  C   UNL A   1      33.100 -34.861 -33.141  0.00  0.00    +0.079 C 
ENDBRANCH  32  36
BRANCH  33  38
ATOM     38  O   UNL A   1      30.968 -33.752 -30.040  0.00  0.00    -0.488 OA
ATOM     39  C   UNL A   1      32.030 -32.845 -29.750  0.00  0.00    +0.079 C 
ENDBRANCH  33  38
ENDBRANCH  24  30
ENDBRANCH  23  26
ENDBRANCH  22  23
ENDBRANCH  21  22
ENDBRANCH   1  21
TORSDOF 10
ENDMDL
MODEL 12
REMARK VINA RESULT:    -8.308     16.747     19.387
REMARK INTER + INTRA:         -13.678
REMARK INTER:                 -12.323
REMARK INTRA:                  -1.355
REMARK UNBOUND:                -0.513
REMARK  Name = cpd74.pdb
REMARK  13 active torsions:
REMARK  status: ('A' for Active; 'I' for Inactive)
REMARK    1  A    between atoms: C_1  and  O_2
REMARK    2  A    between atoms: O_2  and  C_3
REMARK    3  A    between atoms: C_5  and  C_6
REMARK    4  A    between atoms: N_8  and  C_9
REMARK    5  A    between atoms: C_9  and  C_10
REMARK    6  A    between atoms: C_10  and  C_11
REMARK    7  A    between atoms: C_11  and  C_12
REMARK    8  A    between atoms: N_14  and  N_15
REMARK    9  A    between atoms: N_15  and  C_16
REMARK   10  A    between atoms: C_31  and  O_32
REMARK   11  A    between atoms: O_32  and  C_33
REMARK   12  A    between atoms: C_34  and  O_35
REMARK   13  A    between atoms: O_35  and  C_36
REMARK                            x       y       z     vdW  Elec       q    Type
REMARK                         _______ _______ _______ _____ _____    ______ ____
ROOT
ATOM      1  C   UNL A   1      46.940 -19.185 -36.362  0.00  0.00    +0.229 C 
ATOM      2  O   UNL A   1      46.607 -19.931 -35.447  0.00  0.00    -0.274 OA
ATOM      3  N   UNL A   1      47.060 -19.617 -37.672  0.00  0.00    -0.236 N 
ATOM      4  H   UNL A   1      47.168 -18.982 -38.416  0.00  0.00    +0.000 HD
ENDROOT
BRANCH   3   5
ATOM      5  N   UNL A   1      47.021 -21.017 -37.889  0.00  0.00    -0.264 N 
ATOM      6  H   UNL A   1      47.466 -21.689 -37.326  0.00  0.00    +0.000 HD
BRANCH   5   7
ATOM      7  C   UNL A   1      46.237 -21.305 -39.052  0.00  0.00    +0.058 A 
ATOM      8  C   UNL A   1      46.866 -21.961 -40.131  0.00  0.00    -0.003 A 
ATOM      9  C   UNL A   1      46.100 -22.218 -41.266  0.00  0.00    +0.047 A 
ATOM     10  N   UNL A   1      44.815 -21.819 -41.393  0.00  0.00    -0.251 NA
ATOM     11  C   UNL A   1      44.225 -21.172 -40.377  0.00  0.00    +0.073 A 
ATOM     12  C   UNL A   1      42.904 -20.777 -40.542  0.00  0.00    -0.036 A 
ATOM     13  C   UNL A   1      42.205 -20.095 -39.545  0.00  0.00    -0.060 A 
ATOM     14  C   UNL A   1      42.839 -19.796 -38.349  0.00  0.00    -0.061 A 
ATOM     15  C   UNL A   1      44.166 -20.182 -38.161  0.00  0.00    -0.051 A 
ATOM     16  C   UNL A   1      44.885 -20.876 -39.169  0.00  0.00    +0.023 A 
ATOM     17  C   UNL A   1      46.677 -22.920 -42.469  0.00  0.00    -0.010 C 
ATOM     18  C   UNL A   1      47.923 -23.738 -42.145  0.00  0.00    -0.047 C 
ATOM     19  C   UNL A   1      48.904 -22.891 -41.348  0.00  0.00    -0.049 C 
ATOM     20  C   UNL A   1      48.285 -22.467 -40.016  0.00  0.00    -0.024 C 
ENDBRANCH   5   7
ENDBRANCH   3   5
BRANCH   1  21
ATOM     21  C   UNL A   1      47.209 -17.703 -36.204  0.00  0.00    +0.027 C 
BRANCH  21  22
ATOM     22  C   UNL A   1      45.943 -16.863 -36.044  0.00  0.00    -0.029 C 
BRANCH  22  23
ATOM     23  C   UNL A   1      45.321 -17.005 -34.654  0.00  0.00    +0.012 C 
BRANCH  23  26
ATOM     24  C   UNL A   1      43.806 -18.704 -33.693  0.00  0.00    +0.244 C 
ATOM     25  O   UNL A   1      44.516 -18.907 -32.717  0.00  0.00    -0.270 OA
ATOM     26  N   UNL A   1      44.107 -17.797 -34.689  0.00  0.00    -0.311 N 
ATOM     27  H   UNL A   1      43.482 -17.686 -35.442  0.00  0.00    +0.000 HD
BRANCH  24  30
ATOM     28  C   UNL A   1      40.571 -20.075 -35.136  0.00  0.00    +0.166 A 
ATOM     29  C   UNL A   1      41.740 -19.323 -35.003  0.00  0.00    -0.004 A 
ATOM     30  C   UNL A   1      42.553 -19.489 -33.872  0.00  0.00    +0.044 A 
ATOM     31  C   UNL A   1      42.189 -20.384 -32.856  0.00  0.00    -0.004 A 
ATOM     32  C   UNL A   1      41.023 -21.140 -32.971  0.00  0.00    +0.166 A 
ATOM     33  C   UNL A   1      40.216 -20.971 -34.110  0.00  0.00    +0.204 A 
BRANCH  28  35
ATOM     34  C   UNL A   1      39.570 -18.746 -36.852  0.00  0.00    +0.079 C 
ATOM     35  O   UNL A   1      39.708 -19.999 -36.200  0.00  0.00    -0.491 OA
ENDBRANCH  28  35
BRANCH  32  36
ATOM     36  O   UNL A   1      40.584 -22.051 -32.045  0.00  0.00    -0.491 OA
ATOM     37  C   UNL A   1      41.496 -23.063 -31.638  0.00  0.00    +0.079 C 
ENDBRANCH  32  36
BRANCH  33  38
ATOM     38  O   UNL A   1      39.089 -21.748 -34.262  0.00  0.00    -0.488 OA
ATOM     39  C   UNL A   1      39.415 -22.938 -34.980  0.00  0.00    +0.079 C 
ENDBRANCH  33  38
ENDBRANCH  24  30
ENDBRANCH  23  26
ENDBRANCH  22  23
ENDBRANCH  21  22
ENDBRANCH   1  21
TORSDOF 10
ENDMDL
MODEL 13
REMARK VINA RESULT:    -8.246      5.821      9.379
REMARK INTER + INTRA:         -13.580
REMARK INTER:                 -11.988
REMARK INTRA:                  -1.591
REMARK UNBOUND:                -0.513
REMARK  Name = cpd74.pdb
REMARK  13 active torsions:
REMARK  status: ('A' for Active; 'I' for Inactive)
REMARK    1  A    between atoms: C_1  and  O_2
REMARK    2  A    between atoms: O_2  and  C_3
REMARK    3  A    between atoms: C_5  and  C_6
REMARK    4  A    between atoms: N_8  and  C_9
REMARK    5  A    between atoms: C_9  and  C_10
REMARK    6  A    between atoms: C_10  and  C_11
REMARK    7  A    between atoms: C_11  and  C_12
REMARK    8  A    between atoms: N_14  and  N_15
REMARK    9  A    between atoms: N_15  and  C_16
REMARK   10  A    between atoms: C_31  and  O_32
REMARK   11  A    between atoms: O_32  and  C_33
REMARK   12  A    between atoms: C_34  and  O_35
REMARK   13  A    between atoms: O_35  and  C_36
REMARK                            x       y       z     vdW  Elec       q    Type
REMARK                         _______ _______ _______ _____ _____    ______ ____
ROOT
ATOM      1  C   UNL A   1      35.137 -33.967 -31.159  0.00  0.00    +0.229 C 
ATOM      2  O   UNL A   1      34.317 -34.535 -31.873  0.00  0.00    -0.274 OA
ATOM      3  N   UNL A   1      36.489 -34.263 -31.193  0.00  0.00    -0.236 N 
ATOM      4  H   UNL A   1      37.152 -33.695 -30.740  0.00  0.00    +0.000 HD
ENDROOT
BRANCH   3   5
ATOM      5  N   UNL A   1      36.871 -35.423 -31.912  0.00  0.00    -0.264 N 
ATOM      6  H   UNL A   1      36.553 -35.661 -32.812  0.00  0.00    +0.000 HD
BRANCH   5   7
ATOM      7  C   UNL A   1      37.790 -36.196 -31.132  0.00  0.00    +0.058 A 
ATOM      8  C   UNL A   1      37.263 -37.081 -30.169  0.00  0.00    -0.003 A 
ATOM      9  C   UNL A   1      38.166 -37.813 -29.401  0.00  0.00    +0.047 A 
ATOM     10  N   UNL A   1      39.506 -37.668 -29.503  0.00  0.00    -0.251 NA
ATOM     11  C   UNL A   1      40.007 -36.806 -30.400  0.00  0.00    +0.073 A 
ATOM     12  C   UNL A   1      41.388 -36.683 -30.479  0.00  0.00    -0.036 A 
ATOM     13  C   UNL A   1      42.004 -35.811 -31.377  0.00  0.00    -0.060 A 
ATOM     14  C   UNL A   1      41.224 -35.038 -32.223  0.00  0.00    -0.061 A 
ATOM     15  C   UNL A   1      39.835 -35.145 -32.162  0.00  0.00    -0.051 A 
ATOM     16  C   UNL A   1      39.199 -36.029 -31.253  0.00  0.00    +0.023 A 
ATOM     17  C   UNL A   1      37.703 -38.791 -28.351  0.00  0.00    -0.010 C 
ATOM     18  C   UNL A   1      36.269 -39.264 -28.563  0.00  0.00    -0.047 C 
ATOM     19  C   UNL A   1      35.359 -38.067 -28.791  0.00  0.00    -0.049 C 
ATOM     20  C   UNL A   1      35.774 -37.310 -30.053  0.00  0.00    -0.024 C 
ENDBRANCH   5   7
ENDBRANCH   3   5
BRANCH   1  21
ATOM     21  C   UNL A   1      34.803 -32.845 -30.198  0.00  0.00    +0.027 C 
BRANCH  21  22
ATOM     22  C   UNL A   1      33.714 -31.903 -30.708  0.00  0.00    -0.029 C 
BRANCH  22  23
ATOM     23  C   UNL A   1      32.311 -32.368 -30.316  0.00  0.00    +0.012 C 
BRANCH  23  26
ATOM     24  C   UNL A   1      31.875 -33.869 -28.404  0.00  0.00    +0.244 C 
ATOM     25  O   UNL A   1      31.411 -32.979 -27.702  0.00  0.00    -0.270 OA
ATOM     26  N   UNL A   1      32.336 -33.675 -29.689  0.00  0.00    -0.311 N 
ATOM     27  H   UNL A   1      32.690 -34.443 -30.194  0.00  0.00    +0.000 HD
BRANCH  24  30
ATOM     28  C   UNL A   1      31.824 -37.655 -28.094  0.00  0.00    +0.166 A 
ATOM     29  C   UNL A   1      31.696 -36.376 -28.638  0.00  0.00    -0.004 A 
ATOM     30  C   UNL A   1      32.000 -35.250 -27.859  0.00  0.00    +0.044 A 
ATOM     31  C   UNL A   1      32.407 -35.395 -26.524  0.00  0.00    -0.004 A 
ATOM     32  C   UNL A   1      32.535 -36.665 -25.964  0.00  0.00    +0.166 A 
ATOM     33  C   UNL A   1      32.232 -37.788 -26.754  0.00  0.00    +0.204 A 
BRANCH  28  35
ATOM     34  C   UNL A   1      31.964 -38.910 -30.123  0.00  0.00    +0.079 C 
ATOM     35  O   UNL A   1      31.559 -38.822 -28.765  0.00  0.00    -0.491 OA
ENDBRANCH  28  35
BRANCH  32  36
ATOM     36  O   UNL A   1      32.937 -36.918 -24.677  0.00  0.00    -0.491 OA
ATOM     37  C   UNL A   1      32.077 -36.494 -23.627  0.00  0.00    +0.079 C 
ENDBRANCH  32  36
BRANCH  33  38
ATOM     38  O   UNL A   1      32.404 -39.050 -26.230  0.00  0.00    -0.488 OA
ATOM     39  C   UNL A   1      31.171 -39.522 -25.689  0.00  0.00    +0.079 C 
ENDBRANCH  33  38
ENDBRANCH  24  30
ENDBRANCH  23  26
ENDBRANCH  22  23
ENDBRANCH  21  22
ENDBRANCH   1  21
TORSDOF 10
ENDMDL
MODEL 14
REMARK VINA RESULT:    -8.227     17.306     20.025
REMARK INTER + INTRA:         -13.550
REMARK INTER:                 -12.418
REMARK INTRA:                  -1.132
REMARK UNBOUND:                -0.513
REMARK  Name = cpd74.pdb
REMARK  13 active torsions:
REMARK  status: ('A' for Active; 'I' for Inactive)
REMARK    1  A    between atoms: C_1  and  O_2
REMARK    2  A    between atoms: O_2  and  C_3
REMARK    3  A    between atoms: C_5  and  C_6
REMARK    4  A    between atoms: N_8  and  C_9
REMARK    5  A    between atoms: C_9  and  C_10
REMARK    6  A    between atoms: C_10  and  C_11
REMARK    7  A    between atoms: C_11  and  C_12
REMARK    8  A    between atoms: N_14  and  N_15
REMARK    9  A    between atoms: N_15  and  C_16
REMARK   10  A    between atoms: C_31  and  O_32
REMARK   11  A    between atoms: O_32  and  C_33
REMARK   12  A    between atoms: C_34  and  O_35
REMARK   13  A    between atoms: O_35  and  C_36
REMARK                            x       y       z     vdW  Elec       q    Type
REMARK                         _______ _______ _______ _____ _____    ______ ____
ROOT
ATOM      1  C   UNL A   1      47.143 -19.282 -35.949  0.00  0.00    +0.229 C 
ATOM      2  O   UNL A   1      48.269 -18.820 -35.795  0.00  0.00    -0.274 OA
ATOM      3  N   UNL A   1      46.751 -19.924 -37.111  0.00  0.00    -0.236 N 
ATOM      4  H   UNL A   1      45.908 -20.429 -37.162  0.00  0.00    +0.000 HD
ENDROOT
BRANCH   3   5
ATOM      5  N   UNL A   1      47.622 -19.819 -38.224  0.00  0.00    -0.264 N 
ATOM      6  H   UNL A   1      48.585 -20.024 -38.210  0.00  0.00    +0.000 HD
BRANCH   5   7
ATOM      7  C   UNL A   1      46.893 -19.370 -39.371  0.00  0.00    +0.058 A 
ATOM      8  C   UNL A   1      46.565 -20.318 -40.362  0.00  0.00    -0.003 A 
ATOM      9  C   UNL A   1      45.874 -19.866 -41.485  0.00  0.00    +0.047 A 
ATOM     10  N   UNL A   1      45.560 -18.567 -41.683  0.00  0.00    -0.251 NA
ATOM     11  C   UNL A   1      45.897 -17.661 -40.753  0.00  0.00    +0.073 A 
ATOM     12  C   UNL A   1      45.559 -16.335 -40.989  0.00  0.00    -0.036 A 
ATOM     13  C   UNL A   1      45.869 -15.319 -40.084  0.00  0.00    -0.060 A 
ATOM     14  C   UNL A   1      46.535 -15.631 -38.908  0.00  0.00    -0.061 A 
ATOM     15  C   UNL A   1      46.884 -16.957 -38.649  0.00  0.00    -0.051 A 
ATOM     16  C   UNL A   1      46.573 -17.997 -39.563  0.00  0.00    +0.023 A 
ATOM     17  C   UNL A   1      45.470 -20.802 -42.596  0.00  0.00    -0.010 C 
ATOM     18  C   UNL A   1      45.417 -22.262 -42.160  0.00  0.00    -0.047 C 
ATOM     19  C   UNL A   1      46.699 -22.630 -41.428  0.00  0.00    -0.049 C 
ATOM     20  C   UNL A   1      46.852 -21.788 -40.161  0.00  0.00    -0.024 C 
ENDBRANCH   5   7
ENDBRANCH   3   5
BRANCH   1  21
ATOM     21  C   UNL A   1      46.059 -19.265 -34.891  0.00  0.00    +0.027 C 
BRANCH  21  22
ATOM     22  C   UNL A   1      45.529 -17.867 -34.578  0.00  0.00    -0.029 C 
BRANCH  22  23
ATOM     23  C   UNL A   1      44.125 -17.637 -35.138  0.00  0.00    +0.012 C 
BRANCH  23  26
ATOM     24  C   UNL A   1      42.456 -19.057 -33.997  0.00  0.00    +0.244 C 
ATOM     25  O   UNL A   1      42.306 -18.277 -33.064  0.00  0.00    -0.270 OA
ATOM     26  N   UNL A   1      43.313 -18.836 -35.055  0.00  0.00    -0.311 N 
ATOM     27  H   UNL A   1      43.375 -19.509 -35.771  0.00  0.00    +0.000 HD
BRANCH  24  30
ATOM     28  C   UNL A   1      40.537 -22.118 -35.169  0.00  0.00    +0.166 A 
ATOM     29  C   UNL A   1      41.228 -20.906 -35.198  0.00  0.00    -0.004 A 
ATOM     30  C   UNL A   1      41.715 -20.349 -34.006  0.00  0.00    +0.044 A 
ATOM     31  C   UNL A   1      41.488 -20.985 -32.777  0.00  0.00    -0.004 A 
ATOM     32  C   UNL A   1      40.795 -22.194 -32.729  0.00  0.00    +0.166 A 
ATOM     33  C   UNL A   1      40.315 -22.747 -33.930  0.00  0.00    +0.204 A 
BRANCH  28  35
ATOM     34  C   UNL A   1      39.447 -21.952 -37.290  0.00  0.00    +0.079 C 
ATOM     35  O   UNL A   1      40.025 -22.755 -36.271  0.00  0.00    -0.491 OA
ENDBRANCH  28  35
BRANCH  32  36
ATOM     36  O   UNL A   1      40.532 -22.903 -31.585  0.00  0.00    -0.491 OA
ATOM     37  C   UNL A   1      41.625 -23.560 -30.956  0.00  0.00    +0.079 C 
ENDBRANCH  32  36
BRANCH  33  38
ATOM     38  O   UNL A   1      39.675 -23.967 -33.904  0.00  0.00    -0.488 OA
ATOM     39  C   UNL A   1      38.280 -23.775 -33.671  0.00  0.00    +0.079 C 
ENDBRANCH  33  38
ENDBRANCH  24  30
ENDBRANCH  23  26
ENDBRANCH  22  23
ENDBRANCH  21  22
ENDBRANCH   1  21
TORSDOF 10
ENDMDL
MODEL 15
REMARK VINA RESULT:    -8.199      5.826      9.433
REMARK INTER + INTRA:         -13.505
REMARK INTER:                 -12.113
REMARK INTRA:                  -1.392
REMARK UNBOUND:                -0.513
REMARK  Name = cpd74.pdb
REMARK  13 active torsions:
REMARK  status: ('A' for Active; 'I' for Inactive)
REMARK    1  A    between atoms: C_1  and  O_2
REMARK    2  A    between atoms: O_2  and  C_3
REMARK    3  A    between atoms: C_5  and  C_6
REMARK    4  A    between atoms: N_8  and  C_9
REMARK    5  A    between atoms: C_9  and  C_10
REMARK    6  A    between atoms: C_10  and  C_11
REMARK    7  A    between atoms: C_11  and  C_12
REMARK    8  A    between atoms: N_14  and  N_15
REMARK    9  A    between atoms: N_15  and  C_16
REMARK   10  A    between atoms: C_31  and  O_32
REMARK   11  A    between atoms: O_32  and  C_33
REMARK   12  A    between atoms: C_34  and  O_35
REMARK   13  A    between atoms: O_35  and  C_36
REMARK                            x       y       z     vdW  Elec       q    Type
REMARK                         _______ _______ _______ _____ _____    ______ ____
ROOT
ATOM      1  C   UNL A   1      35.172 -33.910 -31.155  0.00  0.00    +0.229 C 
ATOM      2  O   UNL A   1      34.340 -34.499 -31.836  0.00  0.00    -0.274 OA
ATOM      3  N   UNL A   1      36.528 -34.179 -31.232  0.00  0.00    -0.236 N 
ATOM      4  H   UNL A   1      37.195 -33.595 -30.806  0.00  0.00    +0.000 HD
ENDROOT
BRANCH   3   5
ATOM      5  N   UNL A   1      36.908 -35.337 -31.955  0.00  0.00    -0.264 N 
ATOM      6  H   UNL A   1      36.590 -35.572 -32.857  0.00  0.00    +0.000 HD
BRANCH   5   7
ATOM      7  C   UNL A   1      37.825 -36.115 -31.179  0.00  0.00    +0.058 A 
ATOM      8  C   UNL A   1      37.296 -36.997 -30.213  0.00  0.00    -0.003 A 
ATOM      9  C   UNL A   1      38.198 -37.733 -29.448  0.00  0.00    +0.047 A 
ATOM     10  N   UNL A   1      39.539 -37.596 -29.554  0.00  0.00    -0.251 NA
ATOM     11  C   UNL A   1      40.041 -36.737 -30.453  0.00  0.00    +0.073 A 
ATOM     12  C   UNL A   1      41.423 -36.622 -30.536  0.00  0.00    -0.036 A 
ATOM     13  C   UNL A   1      42.041 -35.753 -31.437  0.00  0.00    -0.060 A 
ATOM     14  C   UNL A   1      41.262 -34.976 -32.280  0.00  0.00    -0.061 A 
ATOM     15  C   UNL A   1      39.872 -35.076 -32.215  0.00  0.00    -0.051 A 
ATOM     16  C   UNL A   1      39.234 -35.956 -31.303  0.00  0.00    +0.023 A 
ATOM     17  C   UNL A   1      37.733 -38.708 -28.396  0.00  0.00    -0.010 C 
ATOM     18  C   UNL A   1      36.296 -39.174 -28.604  0.00  0.00    -0.047 C 
ATOM     19  C   UNL A   1      35.391 -37.972 -28.829  0.00  0.00    -0.049 C 
ATOM     20  C   UNL A   1      35.807 -37.218 -30.092  0.00  0.00    -0.024 C 
ENDBRANCH   5   7
ENDBRANCH   3   5
BRANCH   1  21
ATOM     21  C   UNL A   1      34.849 -32.788 -30.190  0.00  0.00    +0.027 C 
BRANCH  21  22
ATOM     22  C   UNL A   1      33.765 -31.838 -30.696  0.00  0.00    -0.029 C 
BRANCH  22  23
ATOM     23  C   UNL A   1      32.366 -32.250 -30.235  0.00  0.00    +0.012 C 
BRANCH  23  26
ATOM     24  C   UNL A   1      31.535 -33.735 -28.443  0.00  0.00    +0.244 C 
ATOM     25  O   UNL A   1      30.695 -32.934 -28.054  0.00  0.00    -0.270 OA
ATOM     26  N   UNL A   1      32.393 -33.499 -29.498  0.00  0.00    -0.311 N 
ATOM     27  H   UNL A   1      33.039 -34.196 -29.756  0.00  0.00    +0.000 HD
BRANCH  24  30
ATOM     28  C   UNL A   1      32.409 -36.353 -25.834  0.00  0.00    +0.166 A 
ATOM     29  C   UNL A   1      32.272 -35.115 -26.463  0.00  0.00    -0.004 A 
ATOM     30  C   UNL A   1      31.697 -35.038 -27.740  0.00  0.00    +0.044 A 
ATOM     31  C   UNL A   1      31.283 -36.200 -28.407  0.00  0.00    -0.004 A 
ATOM     32  C   UNL A   1      31.416 -37.446 -27.795  0.00  0.00    +0.166 A 
ATOM     33  C   UNL A   1      31.990 -37.512 -26.513  0.00  0.00    +0.204 A 
BRANCH  28  35
ATOM     34  C   UNL A   1      32.757 -35.523 -23.620  0.00  0.00    +0.079 C 
ATOM     35  O   UNL A   1      32.949 -36.544 -24.588  0.00  0.00    -0.491 OA
ENDBRANCH  28  35
BRANCH  32  36
ATOM     36  O   UNL A   1      31.032 -38.638 -28.352  0.00  0.00    -0.491 OA
ATOM     37  C   UNL A   1      29.637 -38.911 -28.418  0.00  0.00    +0.079 C 
ENDBRANCH  32  36
BRANCH  33  38
ATOM     38  O   UNL A   1      32.080 -38.730 -25.875  0.00  0.00    -0.488 OA
ATOM     39  C   UNL A   1      33.357 -39.316 -26.129  0.00  0.00    +0.079 C 
ENDBRANCH  33  38
ENDBRANCH  24  30
ENDBRANCH  23  26
ENDBRANCH  22  23
ENDBRANCH  21  22
ENDBRANCH   1  21
TORSDOF 10
ENDMDL
MODEL 16
REMARK VINA RESULT:    -8.111     17.840     20.853
REMARK INTER + INTRA:         -13.365
REMARK INTER:                 -11.449
REMARK INTRA:                  -1.916
REMARK UNBOUND:                -0.513
REMARK  Name = cpd74.pdb
REMARK  13 active torsions:
REMARK  status: ('A' for Active; 'I' for Inactive)
REMARK    1  A    between atoms: C_1  and  O_2
REMARK    2  A    between atoms: O_2  and  C_3
REMARK    3  A    between atoms: C_5  and  C_6
REMARK    4  A    between atoms: N_8  and  C_9
REMARK    5  A    between atoms: C_9  and  C_10
REMARK    6  A    between atoms: C_10  and  C_11
REMARK    7  A    between atoms: C_11  and  C_12
REMARK    8  A    between atoms: N_14  and  N_15
REMARK    9  A    between atoms: N_15  and  C_16
REMARK   10  A    between atoms: C_31  and  O_32
REMARK   11  A    between atoms: O_32  and  C_33
REMARK   12  A    between atoms: C_34  and  O_35
REMARK   13  A    between atoms: O_35  and  C_36
REMARK                            x       y       z     vdW  Elec       q    Type
REMARK                         _______ _______ _______ _____ _____    ______ ____
ROOT
ATOM      1  C   UNL A   1      44.458 -19.330 -33.925  0.00  0.00    +0.229 C 
ATOM      2  O   UNL A   1      45.348 -20.151 -33.725  0.00  0.00    -0.274 OA
ATOM      3  N   UNL A   1      43.230 -19.675 -34.462  0.00  0.00    -0.236 N 
ATOM      4  H   UNL A   1      42.474 -19.045 -34.467  0.00  0.00    +0.000 HD
ENDROOT
BRANCH   3   5
ATOM      5  N   UNL A   1      43.114 -20.979 -35.006  0.00  0.00    -0.264 N 
ATOM      6  H   UNL A   1      43.829 -21.655 -35.012  0.00  0.00    +0.000 HD
BRANCH   5   7
ATOM      7  C   UNL A   1      41.801 -21.165 -35.544  0.00  0.00    +0.058 A 
ATOM      8  C   UNL A   1      41.636 -21.067 -36.941  0.00  0.00    -0.003 A 
ATOM      9  C   UNL A   1      40.349 -21.229 -37.453  0.00  0.00    +0.047 A 
ATOM     10  N   UNL A   1      39.264 -21.417 -36.670  0.00  0.00    -0.251 NA
ATOM     11  C   UNL A   1      39.418 -21.483 -35.339  0.00  0.00    +0.073 A 
ATOM     12  C   UNL A   1      38.281 -21.677 -34.566  0.00  0.00    -0.036 A 
ATOM     13  C   UNL A   1      38.337 -21.755 -33.173  0.00  0.00    -0.060 A 
ATOM     14  C   UNL A   1      39.560 -21.637 -32.531  0.00  0.00    -0.061 A 
ATOM     15  C   UNL A   1      40.715 -21.442 -33.288  0.00  0.00    -0.051 A 
ATOM     16  C   UNL A   1      40.668 -21.361 -34.704  0.00  0.00    +0.023 A 
ATOM     17  C   UNL A   1      40.070 -21.150 -38.932  0.00  0.00    -0.010 C 
ATOM     18  C   UNL A   1      41.307 -21.395 -39.790  0.00  0.00    -0.047 C 
ATOM     19  C   UNL A   1      42.458 -20.533 -39.294  0.00  0.00    -0.049 C 
ATOM     20  C   UNL A   1      42.826 -20.906 -37.857  0.00  0.00    -0.024 C 
ENDBRANCH   5   7
ENDBRANCH   3   5
BRANCH   1  21
ATOM     21  C   UNL A   1      44.554 -17.861 -33.569  0.00  0.00    +0.027 C 
BRANCH  21  22
ATOM     22  C   UNL A   1      44.900 -16.964 -34.757  0.00  0.00    -0.029 C 
BRANCH  22  23
ATOM     23  C   UNL A   1      46.235 -17.339 -35.401  0.00  0.00    +0.012 C 
BRANCH  23  26
ATOM     24  C   UNL A   1      46.590 -19.147 -37.047  0.00  0.00    +0.244 C 
ATOM     25  O   UNL A   1      47.250 -19.833 -36.277  0.00  0.00    -0.270 OA
ATOM     26  N   UNL A   1      46.050 -17.921 -36.716  0.00  0.00    -0.311 N 
ATOM     27  H   UNL A   1      45.525 -17.430 -37.389  0.00  0.00    +0.000 HD
BRANCH  24  30
ATOM     28  C   UNL A   1      45.602 -19.241 -40.713  0.00  0.00    +0.166 A 
ATOM     29  C   UNL A   1      45.797 -18.771 -39.413  0.00  0.00    -0.004 A 
ATOM     30  C   UNL A   1      46.367 -19.610 -38.445  0.00  0.00    +0.044 A 
ATOM     31  C   UNL A   1      46.718 -20.931 -38.762  0.00  0.00    -0.004 A 
ATOM     32  C   UNL A   1      46.526 -21.417 -40.055  0.00  0.00    +0.166 A 
ATOM     33  C   UNL A   1      45.958 -20.567 -41.020  0.00  0.00    +0.204 A 
BRANCH  28  35
ATOM     34  C   UNL A   1      44.233 -17.404 -41.397  0.00  0.00    +0.079 C 
ATOM     35  O   UNL A   1      45.060 -18.507 -41.738  0.00  0.00    -0.491 OA
ENDBRANCH  28  35
BRANCH  32  36
ATOM     36  O   UNL A   1      46.846 -22.683 -40.472  0.00  0.00    -0.491 OA
ATOM     37  C   UNL A   1      48.222 -23.043 -40.476  0.00  0.00    +0.079 C 
ENDBRANCH  32  36
BRANCH  33  38
ATOM     38  O   UNL A   1      45.810 -21.017 -42.314  0.00  0.00    -0.488 OA
ATOM     39  C   UNL A   1      44.528 -21.624 -42.471  0.00  0.00    +0.079 C 
ENDBRANCH  33  38
ENDBRANCH  24  30
ENDBRANCH  23  26
ENDBRANCH  22  23
ENDBRANCH  21  22
ENDBRANCH   1  21
TORSDOF 10
ENDMDL
MODEL 17
REMARK VINA RESULT:    -8.029     17.833     20.792
REMARK INTER + INTRA:         -13.236
REMARK INTER:                 -11.335
REMARK INTRA:                  -1.901
REMARK UNBOUND:                -0.513
REMARK  Name = cpd74.pdb
REMARK  13 active torsions:
REMARK  status: ('A' for Active; 'I' for Inactive)
REMARK    1  A    between atoms: C_1  and  O_2
REMARK    2  A    between atoms: O_2  and  C_3
REMARK    3  A    between atoms: C_5  and  C_6
REMARK    4  A    between atoms: N_8  and  C_9
REMARK    5  A    between atoms: C_9  and  C_10
REMARK    6  A    between atoms: C_10  and  C_11
REMARK    7  A    between atoms: C_11  and  C_12
REMARK    8  A    between atoms: N_14  and  N_15
REMARK    9  A    between atoms: N_15  and  C_16
REMARK   10  A    between atoms: C_31  and  O_32
REMARK   11  A    between atoms: O_32  and  C_33
REMARK   12  A    between atoms: C_34  and  O_35
REMARK   13  A    between atoms: O_35  and  C_36
REMARK                            x       y       z     vdW  Elec       q    Type
REMARK                         _______ _______ _______ _____ _____    ______ ____
ROOT
ATOM      1  C   UNL A   1      44.551 -19.219 -33.924  0.00  0.00    +0.229 C 
ATOM      2  O   UNL A   1      45.379 -20.065 -33.602  0.00  0.00    -0.274 OA
ATOM      3  N   UNL A   1      43.350 -19.542 -34.532  0.00  0.00    -0.236 N 
ATOM      4  H   UNL A   1      42.631 -18.879 -34.637  0.00  0.00    +0.000 HD
ENDROOT
BRANCH   3   5
ATOM      5  N   UNL A   1      43.206 -20.874 -34.995  0.00  0.00    -0.264 N 
ATOM      6  H   UNL A   1      43.895 -21.574 -34.928  0.00  0.00    +0.000 HD
BRANCH   5   7
ATOM      7  C   UNL A   1      41.910 -21.048 -35.576  0.00  0.00    +0.058 A 
ATOM      8  C   UNL A   1      40.819 -21.269 -34.711  0.00  0.00    -0.003 A 
ATOM      9  C   UNL A   1      39.564 -21.459 -35.288  0.00  0.00    +0.047 A 
ATOM     10  N   UNL A   1      39.366 -21.495 -36.625  0.00  0.00    -0.251 NA
ATOM     11  C   UNL A   1      40.409 -21.312 -37.448  0.00  0.00    +0.073 A 
ATOM     12  C   UNL A   1      40.170 -21.354 -38.815  0.00  0.00    -0.036 A 
ATOM     13  C   UNL A   1      41.190 -21.179 -39.751  0.00  0.00    -0.060 A 
ATOM     14  C   UNL A   1      42.486 -20.955 -39.315  0.00  0.00    -0.061 A 
ATOM     15  C   UNL A   1      42.750 -20.907 -37.947  0.00  0.00    -0.051 A 
ATOM     16  C   UNL A   1      41.721 -21.084 -36.987  0.00  0.00    +0.023 A 
ATOM     17  C   UNL A   1      38.334 -21.695 -34.449  0.00  0.00    -0.010 C 
ATOM     18  C   UNL A   1      38.485 -21.208 -33.013  0.00  0.00    -0.047 C 
ATOM     19  C   UNL A   1      39.788 -21.729 -32.425  0.00  0.00    -0.049 C 
ATOM     20  C   UNL A   1      40.984 -21.190 -33.211  0.00  0.00    -0.024 C 
ENDBRANCH   5   7
ENDBRANCH   3   5
BRANCH   1  21
ATOM     21  C   UNL A   1      44.697 -17.735 -33.659  0.00  0.00    +0.027 C 
BRANCH  21  22
ATOM     22  C   UNL A   1      45.037 -16.920 -34.906  0.00  0.00    -0.029 C 
BRANCH  22  23
ATOM     23  C   UNL A   1      46.320 -17.402 -35.585  0.00  0.00    +0.012 C 
BRANCH  23  26
ATOM     24  C   UNL A   1      46.409 -19.293 -37.172  0.00  0.00    +0.244 C 
ATOM     25  O   UNL A   1      46.964 -20.042 -36.379  0.00  0.00    -0.270 OA
ATOM     26  N   UNL A   1      46.050 -17.993 -36.881  0.00  0.00    -0.311 N 
ATOM     27  H   UNL A   1      45.600 -17.453 -37.571  0.00  0.00    +0.000 HD
BRANCH  24  30
ATOM     28  C   UNL A   1      45.285 -19.391 -40.799  0.00  0.00    +0.166 A 
ATOM     29  C   UNL A   1      45.545 -18.915 -39.513  0.00  0.00    -0.004 A 
ATOM     30  C   UNL A   1      46.118 -19.764 -38.555  0.00  0.00    +0.044 A 
ATOM     31  C   UNL A   1      46.410 -21.100 -38.868  0.00  0.00    -0.004 A 
ATOM     32  C   UNL A   1      46.153 -21.593 -40.147  0.00  0.00    +0.166 A 
ATOM     33  C   UNL A   1      45.581 -20.733 -41.102  0.00  0.00    +0.204 A 
BRANCH  28  35
ATOM     34  C   UNL A   1      44.004 -17.485 -41.459  0.00  0.00    +0.079 C 
ATOM     35  O   UNL A   1      44.734 -18.650 -41.813  0.00  0.00    -0.491 OA
ENDBRANCH  28  35
BRANCH  32  36
ATOM     36  O   UNL A   1      46.412 -22.875 -40.560  0.00  0.00    -0.491 OA
ATOM     37  C   UNL A   1      47.775 -23.258 -40.690  0.00  0.00    +0.079 C 
ENDBRANCH  32  36
BRANCH  33  38
ATOM     38  O   UNL A   1      45.371 -21.192 -42.384  0.00  0.00    -0.488 OA
ATOM     39  C   UNL A   1      44.106 -21.849 -42.461  0.00  0.00    +0.079 C 
ENDBRANCH  33  38
ENDBRANCH  24  30
ENDBRANCH  23  26
ENDBRANCH  22  23
ENDBRANCH  21  22
ENDBRANCH   1  21
TORSDOF 10
ENDMDL
MODEL 18
REMARK VINA RESULT:    -7.822      6.028      9.930
REMARK INTER + INTRA:         -12.908
REMARK INTER:                 -11.304
REMARK INTRA:                  -1.604
REMARK UNBOUND:                -0.513
REMARK  Name = cpd74.pdb
REMARK  13 active torsions:
REMARK  status: ('A' for Active; 'I' for Inactive)
REMARK    1  A    between atoms: C_1  and  O_2
REMARK    2  A    between atoms: O_2  and  C_3
REMARK    3  A    between atoms: C_5  and  C_6
REMARK    4  A    between atoms: N_8  and  C_9
REMARK    5  A    between atoms: C_9  and  C_10
REMARK    6  A    between atoms: C_10  and  C_11
REMARK    7  A    between atoms: C_11  and  C_12
REMARK    8  A    between atoms: N_14  and  N_15
REMARK    9  A    between atoms: N_15  and  C_16
REMARK   10  A    between atoms: C_31  and  O_32
REMARK   11  A    between atoms: O_32  and  C_33
REMARK   12  A    between atoms: C_34  and  O_35
REMARK   13  A    between atoms: O_35  and  C_36
REMARK                            x       y       z     vdW  Elec       q    Type
REMARK                         _______ _______ _______ _____ _____    ______ ____
ROOT
ATOM      1  C   UNL A   1      34.897 -33.538 -31.135  0.00  0.00    +0.229 C 
ATOM      2  O   UNL A   1      34.378 -33.644 -32.241  0.00  0.00    -0.274 OA
ATOM      3  N   UNL A   1      36.141 -34.067 -30.839  0.00  0.00    -0.236 N 
ATOM      4  H   UNL A   1      36.614 -33.838 -30.007  0.00  0.00    +0.000 HD
ENDROOT
BRANCH   3   5
ATOM      5  N   UNL A   1      36.701 -34.954 -31.792  0.00  0.00    -0.264 N 
ATOM      6  H   UNL A   1      36.543 -34.915 -32.763  0.00  0.00    +0.000 HD
BRANCH   5   7
ATOM      7  C   UNL A   1      37.532 -35.915 -31.132  0.00  0.00    +0.058 A 
ATOM      8  C   UNL A   1      36.904 -36.937 -30.391  0.00  0.00    -0.003 A 
ATOM      9  C   UNL A   1      37.723 -37.855 -29.734  0.00  0.00    +0.047 A 
ATOM     10  N   UNL A   1      39.072 -37.770 -29.734  0.00  0.00    -0.251 NA
ATOM     11  C   UNL A   1      39.667 -36.781 -30.416  0.00  0.00    +0.073 A 
ATOM     12  C   UNL A   1      41.055 -36.724 -30.394  0.00  0.00    -0.036 A 
ATOM     13  C   UNL A   1      41.766 -35.731 -31.069  0.00  0.00    -0.060 A 
ATOM     14  C   UNL A   1      41.078 -34.766 -31.787  0.00  0.00    -0.061 A 
ATOM     15  C   UNL A   1      39.684 -34.803 -31.824  0.00  0.00    -0.051 A 
ATOM     16  C   UNL A   1      38.952 -35.808 -31.141  0.00  0.00    +0.023 A 
ATOM     17  C   UNL A   1      37.150 -38.989 -28.924  0.00  0.00    -0.010 C 
ATOM     18  C   UNL A   1      35.712 -39.330 -29.302  0.00  0.00    -0.047 C 
ATOM     19  C   UNL A   1      34.873 -38.062 -29.339  0.00  0.00    -0.049 C 
ATOM     20  C   UNL A   1      35.403 -37.100 -30.403  0.00  0.00    -0.024 C 
ENDBRANCH   5   7
ENDBRANCH   3   5
BRANCH   1  21
ATOM     21  C   UNL A   1      34.287 -32.781 -29.973  0.00  0.00    +0.027 C 
BRANCH  21  22
ATOM     22  C   UNL A   1      33.505 -33.668 -29.006  0.00  0.00    -0.029 C 
BRANCH  22  23
ATOM     23  C   UNL A   1      32.071 -33.916 -29.473  0.00  0.00    +0.012 C 
BRANCH  23  26
ATOM     24  C   UNL A   1      31.432 -34.696 -31.728  0.00  0.00    +0.244 C 
ATOM     25  O   UNL A   1      30.937 -33.624 -32.051  0.00  0.00    -0.270 OA
ATOM     26  N   UNL A   1      32.011 -34.938 -30.500  0.00  0.00    -0.311 N 
ATOM     27  H   UNL A   1      32.394 -35.827 -30.316  0.00  0.00    +0.000 HD
BRANCH  24  30
ATOM     28  C   UNL A   1      30.371 -37.059 -34.506  0.00  0.00    +0.166 A 
ATOM     29  C   UNL A   1      30.376 -35.969 -33.634  0.00  0.00    -0.004 A 
ATOM     30  C   UNL A   1      31.393 -35.844 -32.677  0.00  0.00    +0.044 A 
ATOM     31  C   UNL A   1      32.394 -36.821 -32.567  0.00  0.00    -0.004 A 
ATOM     32  C   UNL A   1      32.401 -37.918 -33.427  0.00  0.00    +0.166 A 
ATOM     33  C   UNL A   1      31.379 -38.033 -34.386  0.00  0.00    +0.204 A 
BRANCH  28  35
ATOM     34  C   UNL A   1      28.073 -37.386 -35.080  0.00  0.00    +0.079 C 
ATOM     35  O   UNL A   1      29.431 -37.278 -35.482  0.00  0.00    -0.491 OA
ENDBRANCH  28  35
BRANCH  32  36
ATOM     36  O   UNL A   1      33.338 -38.919 -33.413  0.00  0.00    -0.491 OA
ATOM     37  C   UNL A   1      33.474 -39.673 -32.215  0.00  0.00    +0.079 C 
ENDBRANCH  32  36
BRANCH  33  38
ATOM     38  O   UNL A   1      31.403 -39.084 -35.277  0.00  0.00    -0.488 OA
ATOM     39  C   UNL A   1      30.664 -40.184 -34.746  0.00  0.00    +0.079 C 
ENDBRANCH  33  38
ENDBRANCH  24  30
ENDBRANCH  23  26
ENDBRANCH  22  23
ENDBRANCH  21  22
ENDBRANCH   1  21
TORSDOF 10
ENDMDL
MODEL 19
REMARK VINA RESULT:    -7.813      5.905      9.607
REMARK INTER + INTRA:         -12.894
REMARK INTER:                 -10.729
REMARK INTRA:                  -2.165
REMARK UNBOUND:                -0.513
REMARK  Name = cpd74.pdb
REMARK  13 active torsions:
REMARK  status: ('A' for Active; 'I' for Inactive)
REMARK    1  A    between atoms: C_1  and  O_2
REMARK    2  A    between atoms: O_2  and  C_3
REMARK    3  A    between atoms: C_5  and  C_6
REMARK    4  A    between atoms: N_8  and  C_9
REMARK    5  A    between atoms: C_9  and  C_10
REMARK    6  A    between atoms: C_10  and  C_11
REMARK    7  A    between atoms: C_11  and  C_12
REMARK    8  A    between atoms: N_14  and  N_15
REMARK    9  A    between atoms: N_15  and  C_16
REMARK   10  A    between atoms: C_31  and  O_32
REMARK   11  A    between atoms: O_32  and  C_33
REMARK   12  A    between atoms: C_34  and  O_35
REMARK   13  A    between atoms: O_35  and  C_36
REMARK                            x       y       z     vdW  Elec       q    Type
REMARK                         _______ _______ _______ _____ _____    ______ ____
ROOT
ATOM      1  C   UNL A   1      35.081 -33.671 -31.056  0.00  0.00    +0.229 C 
ATOM      2  O   UNL A   1      34.294 -34.050 -31.917  0.00  0.00    -0.274 OA
ATOM      3  N   UNL A   1      36.389 -34.118 -30.990  0.00  0.00    -0.236 N 
ATOM      4  H   UNL A   1      37.051 -33.690 -30.402  0.00  0.00    +0.000 HD
ENDROOT
BRANCH   3   5
ATOM      5  N   UNL A   1      36.729 -35.223 -31.811  0.00  0.00    -0.264 N 
ATOM      6  H   UNL A   1      36.423 -35.355 -32.737  0.00  0.00    +0.000 HD
BRANCH   5   7
ATOM      7  C   UNL A   1      37.584 -36.117 -31.091  0.00  0.00    +0.058 A 
ATOM      8  C   UNL A   1      36.983 -37.088 -30.263  0.00  0.00    -0.003 A 
ATOM      9  C   UNL A   1      37.825 -37.939 -29.550  0.00  0.00    +0.047 A 
ATOM     10  N   UNL A   1      39.173 -37.836 -29.578  0.00  0.00    -0.251 NA
ATOM     11  C   UNL A   1      39.743 -36.895 -30.345  0.00  0.00    +0.073 A 
ATOM     12  C   UNL A   1      41.129 -36.817 -30.350  0.00  0.00    -0.036 A 
ATOM     13  C   UNL A   1      41.815 -35.871 -31.112  0.00  0.00    -0.060 A 
ATOM     14  C   UNL A   1      41.102 -34.974 -31.892  0.00  0.00    -0.061 A 
ATOM     15  C   UNL A   1      39.708 -35.033 -31.903  0.00  0.00    -0.051 A 
ATOM     16  C   UNL A   1      39.001 -35.992 -31.132  0.00  0.00    +0.023 A 
ATOM     17  C   UNL A   1      37.281 -39.015 -28.644  0.00  0.00    -0.010 C 
ATOM     18  C   UNL A   1      35.844 -39.404 -28.972  0.00  0.00    -0.047 C 
ATOM     19  C   UNL A   1      34.985 -38.154 -29.093  0.00  0.00    -0.049 C 
ATOM     20  C   UNL A   1      35.484 -37.271 -30.237  0.00  0.00    -0.024 C 
ENDBRANCH   5   7
ENDBRANCH   3   5
BRANCH   1  21
ATOM     21  C   UNL A   1      34.757 -32.639 -29.996  0.00  0.00    +0.027 C 
BRANCH  21  22
ATOM     22  C   UNL A   1      33.373 -32.010 -30.154  0.00  0.00    -0.029 C 
BRANCH  22  23
ATOM     23  C   UNL A   1      32.308 -32.731 -29.326  0.00  0.00    +0.012 C 
BRANCH  23  26
ATOM     24  C   UNL A   1      32.270 -35.201 -29.336  0.00  0.00    +0.244 C 
ATOM     25  O   UNL A   1      32.891 -35.299 -28.285  0.00  0.00    -0.270 OA
ATOM     26  N   UNL A   1      31.934 -33.998 -29.923  0.00  0.00    -0.311 N 
ATOM     27  H   UNL A   1      31.427 -34.001 -30.767  0.00  0.00    +0.000 HD
BRANCH  24  30
ATOM     28  C   UNL A   1      31.607 -37.692 -32.127  0.00  0.00    +0.166 A 
ATOM     29  C   UNL A   1      31.996 -36.524 -31.468  0.00  0.00    -0.004 A 
ATOM     30  C   UNL A   1      31.867 -36.431 -30.075  0.00  0.00    +0.044 A 
ATOM     31  C   UNL A   1      31.323 -37.491 -29.336  0.00  0.00    -0.004 A 
ATOM     32  C   UNL A   1      30.925 -38.663 -29.978  0.00  0.00    +0.166 A 
ATOM     33  C   UNL A   1      31.063 -38.749 -31.375  0.00  0.00    +0.204 A 
BRANCH  28  35
ATOM     34  C   UNL A   1      31.836 -36.751 -34.312  0.00  0.00    +0.079 C 
ATOM     35  O   UNL A   1      31.695 -37.893 -33.481  0.00  0.00    -0.491 OA
ENDBRANCH  28  35
BRANCH  32  36
ATOM     36  O   UNL A   1      30.396 -39.761 -29.350  0.00  0.00    -0.491 OA
ATOM     37  C   UNL A   1      31.219 -40.436 -28.407  0.00  0.00    +0.079 C 
ENDBRANCH  32  36
BRANCH  33  38
ATOM     38  O   UNL A   1      30.723 -39.920 -32.017  0.00  0.00    -0.488 OA
ATOM     39  C   UNL A   1      29.357 -39.867 -32.429  0.00  0.00    +0.079 C 
ENDBRANCH  33  38
ENDBRANCH  24  30
ENDBRANCH  23  26
ENDBRANCH  22  23
ENDBRANCH  21  22
ENDBRANCH   1  21
TORSDOF 10
ENDMDL
MODEL 20
REMARK VINA RESULT:    -7.793      5.899      9.341
REMARK INTER + INTRA:         -12.861
REMARK INTER:                 -10.785
REMARK INTRA:                  -2.076
REMARK UNBOUND:                -0.513
REMARK  Name = cpd74.pdb
REMARK  13 active torsions:
REMARK  status: ('A' for Active; 'I' for Inactive)
REMARK    1  A    between atoms: C_1  and  O_2
REMARK    2  A    between atoms: O_2  and  C_3
REMARK    3  A    between atoms: C_5  and  C_6
REMARK    4  A    between atoms: N_8  and  C_9
REMARK    5  A    between atoms: C_9  and  C_10
REMARK    6  A    between atoms: C_10  and  C_11
REMARK    7  A    between atoms: C_11  and  C_12
REMARK    8  A    between atoms: N_14  and  N_15
REMARK    9  A    between atoms: N_15  and  C_16
REMARK   10  A    between atoms: C_31  and  O_32
REMARK   11  A    between atoms: O_32  and  C_33
REMARK   12  A    between atoms: C_34  and  O_35
REMARK   13  A    between atoms: O_35  and  C_36
REMARK                            x       y       z     vdW  Elec       q    Type
REMARK                         _______ _______ _______ _____ _____    ______ ____
ROOT
ATOM      1  C   UNL A   1      35.047 -33.771 -30.940  0.00  0.00    +0.229 C 
ATOM      2  O   UNL A   1      34.294 -34.157 -31.829  0.00  0.00    -0.274 OA
ATOM      3  N   UNL A   1      36.381 -34.136 -30.880  0.00  0.00    -0.236 N 
ATOM      4  H   UNL A   1      37.008 -33.696 -30.262  0.00  0.00    +0.000 HD
ENDROOT
BRANCH   3   5
ATOM      5  N   UNL A   1      36.799 -35.173 -31.751  0.00  0.00    -0.264 N 
ATOM      6  H   UNL A   1      36.518 -35.272 -32.688  0.00  0.00    +0.000 HD
BRANCH   5   7
ATOM      7  C   UNL A   1      37.693 -36.054 -31.062  0.00  0.00    +0.058 A 
ATOM      8  C   UNL A   1      37.137 -37.023 -30.201  0.00  0.00    -0.003 A 
ATOM      9  C   UNL A   1      38.017 -37.861 -29.518  0.00  0.00    +0.047 A 
ATOM     10  N   UNL A   1      39.361 -37.747 -29.606  0.00  0.00    -0.251 NA
ATOM     11  C   UNL A   1      39.889 -36.807 -30.404  0.00  0.00    +0.073 A 
ATOM     12  C   UNL A   1      41.273 -36.718 -30.470  0.00  0.00    -0.036 A 
ATOM     13  C   UNL A   1      41.917 -35.771 -31.267  0.00  0.00    -0.060 A 
ATOM     14  C   UNL A   1      41.162 -34.887 -32.022  0.00  0.00    -0.061 A 
ATOM     15  C   UNL A   1      39.770 -34.958 -31.972  0.00  0.00    -0.051 A 
ATOM     16  C   UNL A   1      39.106 -35.917 -31.164  0.00  0.00    +0.023 A 
ATOM     17  C   UNL A   1      37.523 -38.934 -28.582  0.00  0.00    -0.010 C 
ATOM     18  C   UNL A   1      36.076 -39.339 -28.843  0.00  0.00    -0.047 C 
ATOM     19  C   UNL A   1      35.202 -38.097 -28.937  0.00  0.00    -0.049 C 
ATOM     20  C   UNL A   1      35.642 -37.219 -30.109  0.00  0.00    -0.024 C 
ENDBRANCH   5   7
ENDBRANCH   3   5
BRANCH   1  21
ATOM     21  C   UNL A   1      34.646 -32.818 -29.833  0.00  0.00    +0.027 C 
BRANCH  21  22
ATOM     22  C   UNL A   1      33.421 -31.969 -30.169  0.00  0.00    -0.029 C 
BRANCH  22  23
ATOM     23  C   UNL A   1      32.129 -32.561 -29.605  0.00  0.00    +0.012 C 
BRANCH  23  26
ATOM     24  C   UNL A   1      31.954 -34.934 -28.942  0.00  0.00    +0.244 C 
ATOM     25  O   UNL A   1      32.008 -34.691 -27.743  0.00  0.00    -0.270 OA
ATOM     26  N   UNL A   1      32.001 -33.969 -29.927  0.00  0.00    -0.311 N 
ATOM     27  H   UNL A   1      31.946 -34.243 -30.871  0.00  0.00    +0.000 HD
BRANCH  24  30
ATOM     28  C   UNL A   1      31.513 -38.707 -28.990  0.00  0.00    +0.166 A 
ATOM     29  C   UNL A   1      31.583 -37.394 -28.519  0.00  0.00    -0.004 A 
ATOM     30  C   UNL A   1      31.869 -36.347 -29.407  0.00  0.00    +0.044 A 
ATOM     31  C   UNL A   1      32.116 -36.608 -30.763  0.00  0.00    -0.004 A 
ATOM     32  C   UNL A   1      32.055 -37.913 -31.249  0.00  0.00    +0.166 A 
ATOM     33  C   UNL A   1      31.762 -38.956 -30.352  0.00  0.00    +0.204 A 
BRANCH  28  35
ATOM     34  C   UNL A   1      32.249 -40.267 -27.336  0.00  0.00    +0.079 C 
ATOM     35  O   UNL A   1      31.235 -39.803 -28.215  0.00  0.00    -0.491 OA
ENDBRANCH  28  35
BRANCH  32  36
ATOM     36  O   UNL A   1      32.264 -38.274 -32.555  0.00  0.00    -0.491 OA
ATOM     37  C   UNL A   1      31.357 -37.770 -33.528  0.00  0.00    +0.079 C 
ENDBRANCH  32  36
BRANCH  33  38
ATOM     38  O   UNL A   1      31.647 -40.244 -30.828  0.00  0.00    -0.488 OA
ATOM     39  C   UNL A   1      30.289 -40.510 -31.179  0.00  0.00    +0.079 C 
ENDBRANCH  33  38
ENDBRANCH  24  30
ENDBRANCH  23  26
ENDBRANCH  22  23
ENDBRANCH  21  22
ENDBRANCH   1  21
TORSDOF 10
ENDMDL
