REMARK  Name = cpd74.pdb
REMARK  13 active torsions:
REMARK  status: ('A' for Active; 'I' for Inactive)
REMARK    1  A    between atoms: C_1  and  O_2
REMARK    2  A    between atoms: O_2  and  C_3
REMARK    3  A    between atoms: C_5  and  C_6
REMARK    4  A    between atoms: N_8  and  C_9
REMARK    5  A    between atoms: C_9  and  C_10
REMARK    6  A    between atoms: C_10  and  C_11
REMARK    7  A    between atoms: C_11  and  C_12
REMARK    8  A    between atoms: N_14  and  N_15
REMARK    9  A    between atoms: N_15  and  C_16
REMARK   10  A    between atoms: C_31  and  O_32
REMARK   11  A    between atoms: O_32  and  C_33
REMARK   12  A    between atoms: C_34  and  O_35
REMARK   13  A    between atoms: O_35  and  C_36
REMARK                            x       y       z     vdW  Elec       q    Type
REMARK                         _______ _______ _______ _____ _____    ______ ____
ROOT
ATOM      1  C   UNL A   1      -6.520  -2.841  -0.187  0.00  0.00    +0.229 C 
ATOM      2  O   UNL A   1      -6.511  -1.913   0.615  0.00  0.00    -0.274 OA
ATOM      3  N   UNL A   1      -7.477  -3.841  -0.162  0.00  0.00    -0.236 N 
ATOM      4  H   UNL A   1      -7.570  -4.484  -0.901  0.00  0.00    +0.000 HD
ENDROOT
BRANCH   3   5
ATOM      5  N   UNL A   1      -8.316  -3.894   0.979  0.00  0.00    -0.264 N 
ATOM      6  H   UNL A   1      -8.014  -3.784   1.909  0.00  0.00    +0.000 HD
BRANCH   5   7
ATOM      7  C   UNL A   1      -9.669  -4.132   0.576  0.00  0.00    +0.058 A 
ATOM      8  C   UNL A   1     -10.140  -5.461   0.584  0.00  0.00    -0.003 A 
ATOM      9  C   UNL A   1     -11.452  -5.684   0.169  0.00  0.00    +0.047 A 
ATOM     10  N   UNL A   1     -12.258  -4.699  -0.286  0.00  0.00    -0.251 NA
ATOM     11  C   UNL A   1     -11.800  -3.439  -0.319  0.00  0.00    +0.073 A 
ATOM     12  C   UNL A   1     -12.655  -2.452  -0.792  0.00  0.00    -0.036 A 
ATOM     13  C   UNL A   1     -12.270  -1.113  -0.869  0.00  0.00    -0.060 A 
ATOM     14  C   UNL A   1     -10.997  -0.744  -0.463  0.00  0.00    -0.061 A 
ATOM     15  C   UNL A   1     -10.121  -1.718   0.016  0.00  0.00    -0.051 A 
ATOM     16  C   UNL A   1     -10.503  -3.082   0.098  0.00  0.00    +0.023 A 
ATOM     17  C   UNL A   1     -12.052  -7.067   0.149  0.00  0.00    -0.010 C 
ATOM     18  C   UNL A   1     -11.326  -8.049   1.062  0.00  0.00    -0.047 C 
ATOM     19  C   UNL A   1      -9.828  -7.981   0.806  0.00  0.00    -0.049 C 
ATOM     20  C   UNL A   1      -9.292  -6.586   1.129  0.00  0.00    -0.024 C 
ENDBRANCH   5   7
ENDBRANCH   3   5
BRANCH   1  21
ATOM     21  C   UNL A   1      -5.538  -2.994  -1.330  0.00  0.00    +0.027 C 
BRANCH  21  22
ATOM     22  C   UNL A   1      -4.330  -2.064  -1.229  0.00  0.00    -0.029 C 
BRANCH  22  23
ATOM     23  C   UNL A   1      -3.400  -2.440  -0.075  0.00  0.00    +0.012 C 
BRANCH  23  26
ATOM     24  C   UNL A   1      -1.942  -0.483   0.310  0.00  0.00    +0.244 C 
ATOM     25  O   UNL A   1      -2.821   0.170   0.858  0.00  0.00    -0.270 OA
ATOM     26  N   UNL A   1      -2.122  -1.762  -0.175  0.00  0.00    -0.311 N 
ATOM     27  H   UNL A   1      -1.364  -2.226  -0.599  0.00  0.00    +0.000 HD
BRANCH  24  30
ATOM     28  C   UNL A   1       1.810  -0.073  -0.117  0.00  0.00    +0.166 A 
ATOM     29  C   UNL A   1       0.564  -0.671   0.079  0.00  0.00    -0.004 A 
ATOM     30  C   UNL A   1      -0.595   0.118   0.102  0.00  0.00    +0.044 A 
ATOM     31  C   UNL A   1      -0.513   1.511  -0.042  0.00  0.00    -0.004 A 
ATOM     32  C   UNL A   1       0.724   2.125  -0.234  0.00  0.00    +0.166 A 
ATOM     33  C   UNL A   1       1.880   1.325  -0.260  0.00  0.00    +0.204 A 
BRANCH  28  35
ATOM     34  C   UNL A   1       2.966  -2.165  -0.105  0.00  0.00    +0.079 C 
ATOM     35  O   UNL A   1       3.004  -0.747  -0.163  0.00  0.00    -0.491 OA
ENDBRANCH  28  35
BRANCH  32  36
ATOM     36  O   UNL A   1       0.913   3.473  -0.399  0.00  0.00    -0.491 OA
ATOM     37  C   UNL A   1      -0.239   4.306  -0.359  0.00  0.00    +0.079 C 
ENDBRANCH  32  36
BRANCH  33  38
ATOM     38  O   UNL A   1       3.103   1.912  -0.501  0.00  0.00    -0.488 OA
ATOM     39  C   UNL A   1       3.701   2.308   0.733  0.00  0.00    +0.079 C 
ENDBRANCH  33  38
ENDBRANCH  24  30
ENDBRANCH  23  26
ENDBRANCH  22  23
ENDBRANCH  21  22
ENDBRANCH   1  21
TORSDOF 10
