@<TRIPOS>MOLECULE
*****
 18 18 0 0 0
SMALL
GASTEIGER

@<TRIPOS>ATOM
      1 C          -1.7321    3.0000    0.0000 C.3     1  UNL1        0.0234
      2 C          -2.5981    2.5000    0.0000 C.3     1  UNL1        0.0969
      3 N          -2.5981    1.5000    0.0000 N.am    1  UNL1       -0.2439
      4 C          -3.4641    1.0000    0.0000 C.3     1  UNL1        0.1183
      5 C          -1.7321    1.0000    0.0000 C.2     1  UNL1        0.4095
      6 O          -1.7321    0.0000    0.0000 O.2     1  UNL1       -0.2258
      7 O          -0.8660    1.5000    0.0000 O.3     1  UNL1       -0.4101
      8 C           0.0000    1.0000    0.0000 C.ar    1  UNL1        0.1498
      9 C           0.8660    1.5000    0.0000 C.ar    1  UNL1        0.0376
     10 C           1.7321    1.0000    0.0000 C.ar    1  UNL1        0.0029
     11 C           1.7321   -0.0000    0.0000 C.ar    1  UNL1       -0.0028
     12 C           0.8660   -0.5000    0.0000 C.ar    1  UNL1       -0.0047
     13 C           0.8660   -1.5000    0.0000 C.3     1  UNL1        0.0803
     14 C          -0.0000   -2.0000    0.0000 C.3     1  UNL1        0.0222
     15 N           1.7321   -2.0000    0.0000 N.3     1  UNL1       -0.2679
     16 C           1.7321   -3.0000    0.0000 C.3     1  UNL1        0.0899
     17 C           2.5981   -1.5000    0.0000 C.3     1  UNL1        0.0899
     18 C           0.0000   -0.0000    0.0000 C.ar    1  UNL1        0.0347
@<TRIPOS>BOND
     1     1     2    1
     2     2     3    1
     3     3     4    1
     4     3     5   am
     5     5     6    2
     6     5     7    1
     7     7     8    1
     8     8     9   ar
     9     9    10   ar
    10    10    11   ar
    11    11    12   ar
    12    12    13    1
    13    13    14    1
    14    13    15    1
    15    15    16    1
    16    15    17    1
    17    12    18   ar
    18     8    18   ar
