REMARK  Name = cpd227.pdb
REMARK  10 active torsions:
REMARK  status: ('A' for Active; 'I' for Inactive)
REMARK    1  A    between atoms: C_1  and  C_2
REMARK    2  A    between atoms: C_2  and  N_3
REMARK    3  A    between atoms: N_3  and  C_4
REMARK    4  A    between atoms: C_5  and  O_7
REMARK    5  A    between atoms: O_7  and  C_8
REMARK    6  A    between atoms: C_12  and  C_13
REMARK    7  A    between atoms: C_13  and  C_14
REMARK    8  A    between atoms: C_13  and  N_15
REMARK    9  A    between atoms: N_15  and  C_16
REMARK   10  A    between atoms: N_15  and  C_17
REMARK                            x       y       z     vdW  Elec       q    Type
REMARK                         _______ _______ _______ _____ _____    ______ ____
ROOT
ATOM      1  C   UNL     1      -0.079   1.075  -0.309  0.00  0.00    +0.134 A 
ATOM      2  C   UNL     1       0.831   1.738  -1.129  0.00  0.00    -0.019 A 
ATOM      3  C   UNL     1       1.909   1.034  -1.659  0.00  0.00    -0.058 A 
ATOM      4  C   UNL     1       2.075  -0.320  -1.356  0.00  0.00    -0.057 A 
ATOM      5  C   UNL     1       1.171  -0.988  -0.510  0.00  0.00    -0.027 A 
ATOM      6  C   UNL     1       0.089  -0.270   0.021  0.00  0.00    -0.015 A 
ENDROOT
BRANCH   5   7
ATOM      7  C   UNL     1       1.336  -2.473  -0.188  0.00  0.00    +0.032 C 
ATOM      8  C   UNL     1       0.940  -3.265  -1.449  0.00  0.00    -0.045 C 
BRANCH   7   9
ATOM      9  N   UNL     1       2.703  -2.791   0.307  0.00  0.00    -0.302 N 
ATOM     10  C   UNL     1       2.922  -4.230   0.469  0.00  0.00    -0.012 C 
ATOM     11  C   UNL     1       2.963  -2.125   1.592  0.00  0.00    -0.012 C 
ATOM     12  H   UNL     1       3.349  -2.447  -0.404  0.00  0.00    +0.000 HD
ENDBRANCH   7   9
ENDBRANCH   5   7
BRANCH   1  13
ATOM     13  O   UNL     1      -1.118   1.834   0.247  0.00  0.00    -0.411 OA
BRANCH  13  16
ATOM     14  N   UNL     1      -3.373   2.253   0.547  0.00  0.00    -0.270 N 
ATOM     15  C   UNL     1      -4.773   2.050   0.223  0.00  0.00    +0.006 C 
ATOM     16  C   UNL     1      -2.420   1.436  -0.056  0.00  0.00    +0.408 C 
ATOM     17  O   UNL     1      -2.705   0.483  -0.775  0.00  0.00    -0.226 OA
BRANCH  14  19
ATOM     18  C   UNL     1      -2.812   4.656   0.352  0.00  0.00    -0.049 C 
ATOM     19  C   UNL     1      -3.016   3.466   1.277  0.00  0.00    +0.015 C 
ENDBRANCH  14  19
ENDBRANCH  13  16
ENDBRANCH   1  13
TORSDOF 5
