MODEL 1
REMARK VINA RESULT:    -6.271      0.000      0.000
REMARK INTER + INTRA:          -8.611
REMARK INTER:                  -8.104
REMARK INTRA:                  -0.507
REMARK UNBOUND:                -0.507
REMARK  Name = cpd227.pdb
REMARK  10 active torsions:
REMARK  status: ('A' for Active; 'I' for Inactive)
REMARK    1  A    between atoms: C_1  and  C_2
REMARK    2  A    between atoms: C_2  and  N_3
REMARK    3  A    between atoms: N_3  and  C_4
REMARK    4  A    between atoms: C_5  and  O_7
REMARK    5  A    between atoms: O_7  and  C_8
REMARK    6  A    between atoms: C_12  and  C_13
REMARK    7  A    between atoms: C_13  and  C_14
REMARK    8  A    between atoms: C_13  and  N_15
REMARK    9  A    between atoms: N_15  and  C_16
REMARK   10  A    between atoms: N_15  and  C_17
REMARK                            x       y       z     vdW  Elec       q    Type
REMARK                         _______ _______ _______ _____ _____    ______ ____
ROOT
ATOM      1  C   UNL     1      36.273 -36.394 -29.030  0.00  0.00    +0.134 A 
ATOM      2  C   UNL     1      36.389 -37.259 -27.944  0.00  0.00    -0.019 A 
ATOM      3  C   UNL     1      37.547 -38.018 -27.798  0.00  0.00    -0.058 A 
ATOM      4  C   UNL     1      38.572 -37.915 -28.743  0.00  0.00    -0.057 A 
ATOM      5  C   UNL     1      38.449 -37.059 -29.853  0.00  0.00    -0.027 A 
ATOM      6  C   UNL     1      37.278 -36.300 -29.992  0.00  0.00    -0.015 A 
ENDROOT
BRANCH   5   7
ATOM      7  C   UNL     1      39.573 -36.928 -30.880  0.00  0.00    +0.032 C 
ATOM      8  C   UNL     1      39.280 -35.675 -31.728  0.00  0.00    -0.045 C 
BRANCH   7   9
ATOM      9  N   UNL     1      40.918 -36.911 -30.242  0.00  0.00    -0.302 N 
ATOM     10  C   UNL     1      41.678 -35.702 -30.566  0.00  0.00    -0.012 C 
ATOM     11  C   UNL     1      41.704 -38.087 -30.644  0.00  0.00    -0.012 C 
ATOM     12  H   UNL     1      40.753 -36.926 -29.235  0.00  0.00    +0.000 HD
ENDBRANCH   7   9
ENDBRANCH   5   7
BRANCH   1  13
ATOM     13  O   UNL     1      35.068 -35.690 -29.168  0.00  0.00    -0.411 OA
BRANCH  13  16
ATOM     14  N   UNL     1      34.229 -34.551 -30.998  0.00  0.00    -0.270 N 
ATOM     15  C   UNL     1      33.683 -34.501 -32.342  0.00  0.00    +0.006 C 
ATOM     16  C   UNL     1      34.416 -35.793 -30.397  0.00  0.00    +0.408 C 
ATOM     17  O   UNL     1      34.052 -36.851 -30.903  0.00  0.00    -0.226 OA
BRANCH  14  19
ATOM     18  C   UNL     1      34.621 -32.139 -31.390  0.00  0.00    -0.049 C 
ATOM     19  C   UNL     1      34.797 -33.322 -30.451  0.00  0.00    +0.015 C 
ENDBRANCH  14  19
ENDBRANCH  13  16
ENDBRANCH   1  13
TORSDOF 5
ENDMDL
MODEL 2
REMARK VINA RESULT:    -5.860      1.424      2.118
REMARK INTER + INTRA:          -8.079
REMARK INTER:                  -7.616
REMARK INTRA:                  -0.463
REMARK UNBOUND:                -0.507
REMARK  Name = cpd227.pdb
REMARK  10 active torsions:
REMARK  status: ('A' for Active; 'I' for Inactive)
REMARK    1  A    between atoms: C_1  and  C_2
REMARK    2  A    between atoms: C_2  and  N_3
REMARK    3  A    between atoms: N_3  and  C_4
REMARK    4  A    between atoms: C_5  and  O_7
REMARK    5  A    between atoms: O_7  and  C_8
REMARK    6  A    between atoms: C_12  and  C_13
REMARK    7  A    between atoms: C_13  and  C_14
REMARK    8  A    between atoms: C_13  and  N_15
REMARK    9  A    between atoms: N_15  and  C_16
REMARK   10  A    between atoms: N_15  and  C_17
REMARK                            x       y       z     vdW  Elec       q    Type
REMARK                         _______ _______ _______ _____ _____    ______ ____
ROOT
ATOM      1  C   UNL     1      36.455 -35.614 -30.857  0.00  0.00    +0.134 A 
ATOM      2  C   UNL     1      36.170 -36.116 -29.589  0.00  0.00    -0.019 A 
ATOM      3  C   UNL     1      37.131 -36.873 -28.924  0.00  0.00    -0.058 A 
ATOM      4  C   UNL     1      38.360 -37.133 -29.536  0.00  0.00    -0.057 A 
ATOM      5  C   UNL     1      38.644 -36.647 -30.825  0.00  0.00    -0.027 A 
ATOM      6  C   UNL     1      37.669 -35.886 -31.488  0.00  0.00    -0.015 A 
ENDROOT
BRANCH   5   7
ATOM      7  C   UNL     1      39.993 -36.912 -31.493  0.00  0.00    +0.032 C 
ATOM      8  C   UNL     1      40.168 -35.864 -32.609  0.00  0.00    -0.045 C 
BRANCH   7   9
ATOM      9  N   UNL     1      41.111 -36.926 -30.512  0.00  0.00    -0.302 N 
ATOM     10  C   UNL     1      41.956 -35.733 -30.604  0.00  0.00    -0.012 C 
ATOM     11  C   UNL     1      41.953 -38.118 -30.695  0.00  0.00    -0.012 C 
ATOM     12  H   UNL     1      40.678 -36.941 -29.588  0.00  0.00    +0.000 HD
ENDBRANCH   7   9
ENDBRANCH   5   7
BRANCH   1  13
ATOM     13  O   UNL     1      35.440 -34.903 -31.512  0.00  0.00    -0.411 OA
BRANCH  13  16
ATOM     14  N   UNL     1      33.408 -34.153 -30.701  0.00  0.00    -0.270 N 
ATOM     15  C   UNL     1      32.598 -33.295 -29.857  0.00  0.00    +0.006 C 
ATOM     16  C   UNL     1      34.779 -33.923 -30.772  0.00  0.00    +0.408 C 
ATOM     17  O   UNL     1      35.332 -32.968 -30.234  0.00  0.00    -0.226 OA
BRANCH  14  19
ATOM     18  C   UNL     1      32.044 -35.124 -32.525  0.00  0.00    -0.049 C 
ATOM     19  C   UNL     1      32.790 -35.369 -31.222  0.00  0.00    +0.015 C 
ENDBRANCH  14  19
ENDBRANCH  13  16
ENDBRANCH   1  13
TORSDOF 5
ENDMDL
MODEL 3
REMARK VINA RESULT:    -5.744      2.157      5.686
REMARK INTER + INTRA:          -7.930
REMARK INTER:                  -7.691
REMARK INTRA:                  -0.239
REMARK UNBOUND:                -0.507
REMARK  Name = cpd227.pdb
REMARK  10 active torsions:
REMARK  status: ('A' for Active; 'I' for Inactive)
REMARK    1  A    between atoms: C_1  and  C_2
REMARK    2  A    between atoms: C_2  and  N_3
REMARK    3  A    between atoms: N_3  and  C_4
REMARK    4  A    between atoms: C_5  and  O_7
REMARK    5  A    between atoms: O_7  and  C_8
REMARK    6  A    between atoms: C_12  and  C_13
REMARK    7  A    between atoms: C_13  and  C_14
REMARK    8  A    between atoms: C_13  and  N_15
REMARK    9  A    between atoms: N_15  and  C_16
REMARK   10  A    between atoms: N_15  and  C_17
REMARK                            x       y       z     vdW  Elec       q    Type
REMARK                         _______ _______ _______ _____ _____    ______ ____
ROOT
ATOM      1  C   UNL     1      38.307 -37.513 -29.782  0.00  0.00    +0.134 A 
ATOM      2  C   UNL     1      38.349 -38.017 -28.484  0.00  0.00    -0.019 A 
ATOM      3  C   UNL     1      37.262 -37.811 -27.637  0.00  0.00    -0.058 A 
ATOM      4  C   UNL     1      36.151 -37.095 -28.090  0.00  0.00    -0.057 A 
ATOM      5  C   UNL     1      36.114 -36.565 -29.393  0.00  0.00    -0.027 A 
ATOM      6  C   UNL     1      37.214 -36.775 -30.238  0.00  0.00    -0.015 A 
ENDROOT
BRANCH   5   7
ATOM      7  C   UNL     1      34.895 -35.795 -29.901  0.00  0.00    +0.032 C 
ATOM      8  C   UNL     1      34.310 -35.017 -28.706  0.00  0.00    -0.045 C 
BRANCH   7   9
ATOM      9  N   UNL     1      35.223 -34.932 -31.068  0.00  0.00    -0.302 N 
ATOM     10  C   UNL     1      35.302 -33.513 -30.713  0.00  0.00    -0.012 C 
ATOM     11  C   UNL     1      34.228 -35.098 -32.138  0.00  0.00    -0.012 C 
ATOM     12  H   UNL     1      36.142 -35.232 -31.393  0.00  0.00    +0.000 HD
ENDBRANCH   7   9
ENDBRANCH   5   7
BRANCH   1  13
ATOM     13  O   UNL     1      39.443 -37.696 -30.581  0.00  0.00    -0.411 OA
BRANCH  13  16
ATOM     14  N   UNL     1      41.130 -36.170 -31.004  0.00  0.00    -0.270 N 
ATOM     15  C   UNL     1      42.291 -35.394 -30.608  0.00  0.00    +0.006 C 
ATOM     16  C   UNL     1      40.632 -37.128 -30.124  0.00  0.00    +0.408 C 
ATOM     17  O   UNL     1      41.182 -37.425 -29.068  0.00  0.00    -0.226 OA
BRANCH  14  19
ATOM     18  C   UNL     1      40.920 -36.344 -33.464  0.00  0.00    -0.049 C 
ATOM     19  C   UNL     1      40.387 -35.726 -32.180  0.00  0.00    +0.015 C 
ENDBRANCH  14  19
ENDBRANCH  13  16
ENDBRANCH   1  13
TORSDOF 5
ENDMDL
MODEL 4
REMARK VINA RESULT:    -5.536      2.462      5.568
REMARK INTER + INTRA:          -7.661
REMARK INTER:                  -7.355
REMARK INTRA:                  -0.306
REMARK UNBOUND:                -0.507
REMARK  Name = cpd227.pdb
REMARK  10 active torsions:
REMARK  status: ('A' for Active; 'I' for Inactive)
REMARK    1  A    between atoms: C_1  and  C_2
REMARK    2  A    between atoms: C_2  and  N_3
REMARK    3  A    between atoms: N_3  and  C_4
REMARK    4  A    between atoms: C_5  and  O_7
REMARK    5  A    between atoms: O_7  and  C_8
REMARK    6  A    between atoms: C_12  and  C_13
REMARK    7  A    between atoms: C_13  and  C_14
REMARK    8  A    between atoms: C_13  and  N_15
REMARK    9  A    between atoms: N_15  and  C_16
REMARK   10  A    between atoms: N_15  and  C_17
REMARK                            x       y       z     vdW  Elec       q    Type
REMARK                         _______ _______ _______ _____ _____    ______ ____
ROOT
ATOM      1  C   UNL     1      37.476 -37.000 -29.236  0.00  0.00    +0.134 A 
ATOM      2  C   UNL     1      38.598 -36.897 -30.056  0.00  0.00    -0.019 A 
ATOM      3  C   UNL     1      38.576 -36.016 -31.133  0.00  0.00    -0.058 A 
ATOM      4  C   UNL     1      37.432 -35.256 -31.390  0.00  0.00    -0.057 A 
ATOM      5  C   UNL     1      36.288 -35.373 -30.579  0.00  0.00    -0.027 A 
ATOM      6  C   UNL     1      36.319 -36.265 -29.496  0.00  0.00    -0.015 A 
ENDROOT
BRANCH   5   7
ATOM      7  C   UNL     1      35.039 -34.532 -30.842  0.00  0.00    +0.032 C 
ATOM      8  C   UNL     1      35.424 -33.056 -30.630  0.00  0.00    -0.045 C 
BRANCH   7   9
ATOM      9  N   UNL     1      34.452 -34.805 -32.182  0.00  0.00    -0.302 N 
ATOM     10  C   UNL     1      33.378 -33.872 -32.526  0.00  0.00    -0.012 C 
ATOM     11  C   UNL     1      33.929 -36.177 -32.256  0.00  0.00    -0.012 C 
ATOM     12  H   UNL     1      35.210 -34.682 -32.854  0.00  0.00    +0.000 HD
ENDBRANCH   7   9
ENDBRANCH   5   7
BRANCH   1  13
ATOM     13  O   UNL     1      37.521 -37.939 -28.196  0.00  0.00    -0.411 OA
BRANCH  13  16
ATOM     14  N   UNL     1      35.794 -39.476 -28.258  0.00  0.00    -0.270 N 
ATOM     15  C   UNL     1      34.595 -40.086 -27.713  0.00  0.00    +0.006 C 
ATOM     16  C   UNL     1      36.299 -38.331 -27.649  0.00  0.00    +0.408 C 
ATOM     17  O   UNL     1      35.730 -37.746 -26.732  0.00  0.00    -0.226 OA
BRANCH  14  19
ATOM     18  C   UNL     1      35.721 -40.585 -30.470  0.00  0.00    -0.049 C 
ATOM     19  C   UNL     1      36.553 -40.239 -29.245  0.00  0.00    +0.015 C 
ENDBRANCH  14  19
ENDBRANCH  13  16
ENDBRANCH   1  13
TORSDOF 5
ENDMDL
MODEL 5
REMARK VINA RESULT:    -5.355      2.152      6.392
REMARK INTER + INTRA:          -7.427
REMARK INTER:                  -7.017
REMARK INTRA:                  -0.410
REMARK UNBOUND:                -0.507
REMARK  Name = cpd227.pdb
REMARK  10 active torsions:
REMARK  status: ('A' for Active; 'I' for Inactive)
REMARK    1  A    between atoms: C_1  and  C_2
REMARK    2  A    between atoms: C_2  and  N_3
REMARK    3  A    between atoms: N_3  and  C_4
REMARK    4  A    between atoms: C_5  and  O_7
REMARK    5  A    between atoms: O_7  and  C_8
REMARK    6  A    between atoms: C_12  and  C_13
REMARK    7  A    between atoms: C_13  and  C_14
REMARK    8  A    between atoms: C_13  and  N_15
REMARK    9  A    between atoms: N_15  and  C_16
REMARK   10  A    between atoms: N_15  and  C_17
REMARK                            x       y       z     vdW  Elec       q    Type
REMARK                         _______ _______ _______ _____ _____    ______ ____
ROOT
ATOM      1  C   UNL     1      37.181 -36.165 -30.775  0.00  0.00    +0.134 A 
ATOM      2  C   UNL     1      36.595 -37.425 -30.690  0.00  0.00    -0.019 A 
ATOM      3  C   UNL     1      35.218 -37.548 -30.855  0.00  0.00    -0.058 A 
ATOM      4  C   UNL     1      34.439 -36.412 -31.091  0.00  0.00    -0.057 A 
ATOM      5  C   UNL     1      35.024 -35.135 -31.155  0.00  0.00    -0.027 A 
ATOM      6  C   UNL     1      36.412 -35.020 -30.986  0.00  0.00    -0.015 A 
ENDROOT
BRANCH   5   7
ATOM      7  C   UNL     1      34.182 -33.889 -31.430  0.00  0.00    +0.032 C 
ATOM      8  C   UNL     1      32.816 -34.365 -31.961  0.00  0.00    -0.045 C 
BRANCH   7   9
ATOM      9  N   UNL     1      34.079 -33.007 -30.237  0.00  0.00    -0.302 N 
ATOM     10  C   UNL     1      33.127 -33.510 -29.244  0.00  0.00    -0.012 C 
ATOM     11  C   UNL     1      33.682 -31.645 -30.625  0.00  0.00    -0.012 C 
ATOM     12  H   UNL     1      35.007 -32.994 -29.813  0.00  0.00    +0.000 HD
ENDBRANCH   7   9
ENDBRANCH   5   7
BRANCH   1  13
ATOM     13  O   UNL     1      38.562 -36.079 -30.548  0.00  0.00    -0.411 OA
BRANCH  13  16
ATOM     14  N   UNL     1      40.582 -36.794 -31.421  0.00  0.00    -0.270 N 
ATOM     15  C   UNL     1      41.491 -37.038 -32.525  0.00  0.00    +0.006 C 
ATOM     16  C   UNL     1      39.388 -36.122 -31.672  0.00  0.00    +0.408 C 
ATOM     17  O   UNL     1      39.103 -35.634 -32.761  0.00  0.00    -0.226 OA
BRANCH  14  19
ATOM     18  C   UNL     1      42.009 -38.457 -30.272  0.00  0.00    -0.049 C 
ATOM     19  C   UNL     1      40.839 -37.492 -30.165  0.00  0.00    +0.015 C 
ENDBRANCH  14  19
ENDBRANCH  13  16
ENDBRANCH   1  13
TORSDOF 5
ENDMDL
MODEL 6
REMARK VINA RESULT:    -5.239     19.864     21.823
REMARK INTER + INTRA:          -7.277
REMARK INTER:                  -6.708
REMARK INTRA:                  -0.569
REMARK UNBOUND:                -0.507
REMARK  Name = cpd227.pdb
REMARK  10 active torsions:
REMARK  status: ('A' for Active; 'I' for Inactive)
REMARK    1  A    between atoms: C_1  and  C_2
REMARK    2  A    between atoms: C_2  and  N_3
REMARK    3  A    between atoms: N_3  and  C_4
REMARK    4  A    between atoms: C_5  and  O_7
REMARK    5  A    between atoms: O_7  and  C_8
REMARK    6  A    between atoms: C_12  and  C_13
REMARK    7  A    between atoms: C_13  and  C_14
REMARK    8  A    between atoms: C_13  and  N_15
REMARK    9  A    between atoms: N_15  and  C_16
REMARK   10  A    between atoms: N_15  and  C_17
REMARK                            x       y       z     vdW  Elec       q    Type
REMARK                         _______ _______ _______ _____ _____    ______ ____
ROOT
ATOM      1  C   UNL     1      46.819 -18.710 -40.221  0.00  0.00    +0.134 A 
ATOM      2  C   UNL     1      46.974 -17.333 -40.355  0.00  0.00    -0.019 A 
ATOM      3  C   UNL     1      47.184 -16.557 -39.218  0.00  0.00    -0.058 A 
ATOM      4  C   UNL     1      47.223 -17.162 -37.959  0.00  0.00    -0.057 A 
ATOM      5  C   UNL     1      47.044 -18.550 -37.817  0.00  0.00    -0.027 A 
ATOM      6  C   UNL     1      46.831 -19.323 -38.968  0.00  0.00    -0.015 A 
ENDROOT
BRANCH   5   7
ATOM      7  C   UNL     1      47.103 -19.221 -36.445  0.00  0.00    +0.032 C 
ATOM      8  C   UNL     1      48.403 -18.756 -35.760  0.00  0.00    -0.045 C 
BRANCH   7   9
ATOM      9  N   UNL     1      45.881 -18.957 -35.638  0.00  0.00    -0.302 N 
ATOM     10  C   UNL     1      46.133 -18.052 -34.514  0.00  0.00    -0.012 C 
ATOM     11  C   UNL     1      45.315 -20.210 -35.118  0.00  0.00    -0.012 C 
ATOM     12  H   UNL     1      45.217 -18.507 -36.268  0.00  0.00    +0.000 HD
ENDBRANCH   7   9
ENDBRANCH   5   7
BRANCH   1  13
ATOM     13  O   UNL     1      46.555 -19.446 -41.385  0.00  0.00    -0.411 OA
BRANCH  13  16
ATOM     14  N   UNL     1      47.023 -21.686 -41.719  0.00  0.00    -0.270 N 
ATOM     15  C   UNL     1      47.857 -22.767 -42.212  0.00  0.00    +0.006 C 
ATOM     16  C   UNL     1      47.514 -20.384 -41.767  0.00  0.00    +0.408 C 
ATOM     17  O   UNL     1      48.658 -20.106 -42.115  0.00  0.00    -0.226 OA
BRANCH  14  19
ATOM     18  C   UNL     1      44.788 -22.056 -42.716  0.00  0.00    -0.049 C 
ATOM     19  C   UNL     1      45.620 -21.985 -41.445  0.00  0.00    +0.015 C 
ENDBRANCH  14  19
ENDBRANCH  13  16
ENDBRANCH   1  13
TORSDOF 5
ENDMDL
MODEL 7
REMARK VINA RESULT:    -5.157      2.175      3.755
REMARK INTER + INTRA:          -7.172
REMARK INTER:                  -6.503
REMARK INTRA:                  -0.668
REMARK UNBOUND:                -0.507
REMARK  Name = cpd227.pdb
REMARK  10 active torsions:
REMARK  status: ('A' for Active; 'I' for Inactive)
REMARK    1  A    between atoms: C_1  and  C_2
REMARK    2  A    between atoms: C_2  and  N_3
REMARK    3  A    between atoms: N_3  and  C_4
REMARK    4  A    between atoms: C_5  and  O_7
REMARK    5  A    between atoms: O_7  and  C_8
REMARK    6  A    between atoms: C_12  and  C_13
REMARK    7  A    between atoms: C_13  and  C_14
REMARK    8  A    between atoms: C_13  and  N_15
REMARK    9  A    between atoms: N_15  and  C_16
REMARK   10  A    between atoms: N_15  and  C_17
REMARK                            x       y       z     vdW  Elec       q    Type
REMARK                         _______ _______ _______ _____ _____    ______ ____
ROOT
ATOM      1  C   UNL     1      36.532 -35.262 -31.158  0.00  0.00    +0.134 A 
ATOM      2  C   UNL     1      37.764 -34.902 -31.697  0.00  0.00    -0.019 A 
ATOM      3  C   UNL     1      38.877 -35.701 -31.448  0.00  0.00    -0.058 A 
ATOM      4  C   UNL     1      38.751 -36.844 -30.654  0.00  0.00    -0.057 A 
ATOM      5  C   UNL     1      37.513 -37.199 -30.088  0.00  0.00    -0.027 A 
ATOM      6  C   UNL     1      36.398 -36.387 -30.343  0.00  0.00    -0.015 A 
ENDROOT
BRANCH   5   7
ATOM      7  C   UNL     1      37.364 -38.457 -29.233  0.00  0.00    +0.032 C 
ATOM      8  C   UNL     1      37.803 -38.095 -27.801  0.00  0.00    -0.045 C 
BRANCH   7   9
ATOM      9  N   UNL     1      35.990 -39.026 -29.306  0.00  0.00    -0.302 N 
ATOM     10  C   UNL     1      35.313 -39.030 -28.008  0.00  0.00    -0.012 C 
ATOM     11  C   UNL     1      36.020 -40.400 -29.829  0.00  0.00    -0.012 C 
ATOM     12  H   UNL     1      35.467 -38.420 -29.939  0.00  0.00    +0.000 HD
ENDBRANCH   7   9
ENDBRANCH   5   7
BRANCH   1  13
ATOM     13  O   UNL     1      35.451 -34.400 -31.388  0.00  0.00    -0.411 OA
BRANCH  13  16
ATOM     14  N   UNL     1      33.167 -34.720 -31.211  0.00  0.00    -0.270 N 
ATOM     15  C   UNL     1      31.879 -35.124 -31.746  0.00  0.00    +0.006 C 
ATOM     16  C   UNL     1      34.312 -34.960 -31.966  0.00  0.00    +0.408 C 
ATOM     17  O   UNL     1      34.306 -35.587 -33.021  0.00  0.00    -0.226 OA
BRANCH  14  19
ATOM     18  C   UNL     1      33.155 -34.638 -28.737  0.00  0.00    -0.049 C 
ATOM     19  C   UNL     1      33.170 -33.850 -30.038  0.00  0.00    +0.015 C 
ENDBRANCH  14  19
ENDBRANCH  13  16
ENDBRANCH   1  13
TORSDOF 5
ENDMDL
MODEL 8
REMARK VINA RESULT:    -5.102     17.174     19.578
REMARK INTER + INTRA:          -7.100
REMARK INTER:                  -6.509
REMARK INTRA:                  -0.592
REMARK UNBOUND:                -0.507
REMARK  Name = cpd227.pdb
REMARK  10 active torsions:
REMARK  status: ('A' for Active; 'I' for Inactive)
REMARK    1  A    between atoms: C_1  and  C_2
REMARK    2  A    between atoms: C_2  and  N_3
REMARK    3  A    between atoms: N_3  and  C_4
REMARK    4  A    between atoms: C_5  and  O_7
REMARK    5  A    between atoms: O_7  and  C_8
REMARK    6  A    between atoms: C_12  and  C_13
REMARK    7  A    between atoms: C_13  and  C_14
REMARK    8  A    between atoms: C_13  and  N_15
REMARK    9  A    between atoms: N_15  and  C_16
REMARK   10  A    between atoms: N_15  and  C_17
REMARK                            x       y       z     vdW  Elec       q    Type
REMARK                         _______ _______ _______ _____ _____    ______ ____
ROOT
ATOM      1  C   UNL     1      43.610 -21.158 -41.156  0.00  0.00    +0.134 A 
ATOM      2  C   UNL     1      42.536 -21.619 -41.914  0.00  0.00    -0.019 A 
ATOM      3  C   UNL     1      41.379 -22.046 -41.268  0.00  0.00    -0.058 A 
ATOM      4  C   UNL     1      41.310 -22.020 -39.872  0.00  0.00    -0.057 A 
ATOM      5  C   UNL     1      42.400 -21.577 -39.102  0.00  0.00    -0.027 A 
ATOM      6  C   UNL     1      43.562 -21.151 -39.761  0.00  0.00    -0.015 A 
ENDROOT
BRANCH   5   7
ATOM      7  C   UNL     1      42.325 -21.529 -37.576  0.00  0.00    +0.032 C 
ATOM      8  C   UNL     1      43.129 -20.299 -37.113  0.00  0.00    -0.045 C 
BRANCH   7   9
ATOM      9  N   UNL     1      40.921 -21.540 -37.083  0.00  0.00    -0.302 N 
ATOM     10  C   UNL     1      40.521 -20.258 -36.497  0.00  0.00    -0.012 C 
ATOM     11  C   UNL     1      40.725 -22.599 -36.082  0.00  0.00    -0.012 C 
ATOM     12  H   UNL     1      40.335 -21.715 -37.899  0.00  0.00    +0.000 HD
ENDBRANCH   7   9
ENDBRANCH   5   7
BRANCH   1  13
ATOM     13  O   UNL     1      44.774 -20.790 -41.844  0.00  0.00    -0.411 OA
BRANCH  13  16
ATOM     14  N   UNL     1      46.941 -21.539 -41.538  0.00  0.00    -0.270 N 
ATOM     15  C   UNL     1      47.971 -22.559 -41.609  0.00  0.00    +0.006 C 
ATOM     16  C   UNL     1      45.697 -21.802 -42.106  0.00  0.00    +0.408 C 
ATOM     17  O   UNL     1      45.451 -22.815 -42.755  0.00  0.00    -0.226 OA
BRANCH  14  19
ATOM     18  C   UNL     1      47.181 -20.812 -39.184  0.00  0.00    -0.049 C 
ATOM     19  C   UNL     1      47.172 -20.404 -40.649  0.00  0.00    +0.015 C 
ENDBRANCH  14  19
ENDBRANCH  13  16
ENDBRANCH   1  13
TORSDOF 5
ENDMDL
MODEL 9
REMARK VINA RESULT:    -5.098      2.835      5.753
REMARK INTER + INTRA:          -7.094
REMARK INTER:                  -6.363
REMARK INTRA:                  -0.731
REMARK UNBOUND:                -0.507
REMARK  Name = cpd227.pdb
REMARK  10 active torsions:
REMARK  status: ('A' for Active; 'I' for Inactive)
REMARK    1  A    between atoms: C_1  and  C_2
REMARK    2  A    between atoms: C_2  and  N_3
REMARK    3  A    between atoms: N_3  and  C_4
REMARK    4  A    between atoms: C_5  and  O_7
REMARK    5  A    between atoms: O_7  and  C_8
REMARK    6  A    between atoms: C_12  and  C_13
REMARK    7  A    between atoms: C_13  and  C_14
REMARK    8  A    between atoms: C_13  and  N_15
REMARK    9  A    between atoms: N_15  and  C_16
REMARK   10  A    between atoms: N_15  and  C_17
REMARK                            x       y       z     vdW  Elec       q    Type
REMARK                         _______ _______ _______ _____ _____    ______ ____
ROOT
ATOM      1  C   UNL     1      36.292 -36.903 -28.509  0.00  0.00    +0.134 A 
ATOM      2  C   UNL     1      37.432 -37.001 -29.303  0.00  0.00    -0.019 A 
ATOM      3  C   UNL     1      37.588 -36.135 -30.381  0.00  0.00    -0.058 A 
ATOM      4  C   UNL     1      36.600 -35.188 -30.665  0.00  0.00    -0.057 A 
ATOM      5  C   UNL     1      35.436 -35.101 -29.879  0.00  0.00    -0.027 A 
ATOM      6  C   UNL     1      35.287 -35.979 -28.796  0.00  0.00    -0.015 A 
ENDROOT
BRANCH   5   7
ATOM      7  C   UNL     1      34.359 -34.056 -30.172  0.00  0.00    +0.032 C 
ATOM      8  C   UNL     1      35.061 -32.828 -30.782  0.00  0.00    -0.045 C 
BRANCH   7   9
ATOM      9  N   UNL     1      33.267 -34.601 -31.025  0.00  0.00    -0.302 N 
ATOM     10  C   UNL     1      33.202 -33.951 -32.337  0.00  0.00    -0.012 C 
ATOM     11  C   UNL     1      31.963 -34.459 -30.361  0.00  0.00    -0.012 C 
ATOM     12  H   UNL     1      33.484 -35.587 -31.168  0.00  0.00    +0.000 HD
ENDBRANCH   7   9
ENDBRANCH   5   7
BRANCH   1  13
ATOM     13  O   UNL     1      36.150 -37.830 -27.467  0.00  0.00    -0.411 OA
BRANCH  13  16
ATOM     14  N   UNL     1      34.242 -38.783 -26.572  0.00  0.00    -0.270 N 
ATOM     15  C   UNL     1      33.076 -39.644 -26.650  0.00  0.00    +0.006 C 
ATOM     16  C   UNL     1      35.159 -38.800 -27.619  0.00  0.00    +0.408 C 
ATOM     17  O   UNL     1      35.090 -39.579 -28.565  0.00  0.00    -0.226 OA
BRANCH  14  19
ATOM     18  C   UNL     1      33.195 -36.690 -25.763  0.00  0.00    -0.049 C 
ATOM     19  C   UNL     1      34.256 -37.756 -25.534  0.00  0.00    +0.015 C 
ENDBRANCH  14  19
ENDBRANCH  13  16
ENDBRANCH   1  13
TORSDOF 5
ENDMDL
MODEL 10
REMARK VINA RESULT:    -5.097     35.763     37.734
REMARK INTER + INTRA:          -7.094
REMARK INTER:                  -6.403
REMARK INTRA:                  -0.691
REMARK UNBOUND:                -0.507
REMARK  Name = cpd227.pdb
REMARK  10 active torsions:
REMARK  status: ('A' for Active; 'I' for Inactive)
REMARK    1  A    between atoms: C_1  and  C_2
REMARK    2  A    between atoms: C_2  and  N_3
REMARK    3  A    between atoms: N_3  and  C_4
REMARK    4  A    between atoms: C_5  and  O_7
REMARK    5  A    between atoms: O_7  and  C_8
REMARK    6  A    between atoms: C_12  and  C_13
REMARK    7  A    between atoms: C_13  and  C_14
REMARK    8  A    between atoms: C_13  and  N_15
REMARK    9  A    between atoms: N_15  and  C_16
REMARK   10  A    between atoms: N_15  and  C_17
REMARK                            x       y       z     vdW  Elec       q    Type
REMARK                         _______ _______ _______ _____ _____    ______ ____
ROOT
ATOM      1  C   UNL     1      63.329 -22.050  -8.217  0.00  0.00    +0.134 A 
ATOM      2  C   UNL     1      63.341 -21.945  -9.606  0.00  0.00    -0.019 A 
ATOM      3  C   UNL     1      63.560 -23.085 -10.374  0.00  0.00    -0.058 A 
ATOM      4  C   UNL     1      63.776 -24.316  -9.749  0.00  0.00    -0.057 A 
ATOM      5  C   UNL     1      63.787 -24.424  -8.347  0.00  0.00    -0.027 A 
ATOM      6  C   UNL     1      63.567 -23.269  -7.581  0.00  0.00    -0.015 A 
ENDROOT
BRANCH   5   7
ATOM      7  C   UNL     1      64.005 -25.770  -7.656  0.00  0.00    +0.032 C 
ATOM      8  C   UNL     1      65.421 -25.754  -7.051  0.00  0.00    -0.045 C 
BRANCH   7   9
ATOM      9  N   UNL     1      62.938 -26.069  -6.662  0.00  0.00    -0.302 N 
ATOM     10  C   UNL     1      63.468 -26.258  -5.309  0.00  0.00    -0.012 C 
ATOM     11  C   UNL     1      62.185 -27.272  -7.048  0.00  0.00    -0.012 C 
ATOM     12  H   UNL     1      62.322 -25.256  -6.654  0.00  0.00    +0.000 HD
ENDBRANCH   7   9
ENDBRANCH   5   7
BRANCH   1  13
ATOM     13  O   UNL     1      63.160 -20.869  -7.482  0.00  0.00    -0.411 OA
BRANCH  13  16
ATOM     14  N   UNL     1      63.707 -20.440  -5.276  0.00  0.00    -0.270 N 
ATOM     15  C   UNL     1      64.665 -20.231  -4.206  0.00  0.00    +0.006 C 
ATOM     16  C   UNL     1      64.174 -20.536  -6.584  0.00  0.00    +0.408 C 
ATOM     17  O   UNL     1      65.346 -20.353  -6.898  0.00  0.00    -0.226 OA
BRANCH  14  19
ATOM     18  C   UNL     1      62.270 -22.182  -4.261  0.00  0.00    -0.049 C 
ATOM     19  C   UNL     1      62.344 -20.804  -4.902  0.00  0.00    +0.015 C 
ENDBRANCH  14  19
ENDBRANCH  13  16
ENDBRANCH   1  13
TORSDOF 5
ENDMDL
MODEL 11
REMARK VINA RESULT:    -4.956      2.875      5.269
REMARK INTER + INTRA:          -6.911
REMARK INTER:                  -6.196
REMARK INTRA:                  -0.714
REMARK UNBOUND:                -0.507
REMARK  Name = cpd227.pdb
REMARK  10 active torsions:
REMARK  status: ('A' for Active; 'I' for Inactive)
REMARK    1  A    between atoms: C_1  and  C_2
REMARK    2  A    between atoms: C_2  and  N_3
REMARK    3  A    between atoms: N_3  and  C_4
REMARK    4  A    between atoms: C_5  and  O_7
REMARK    5  A    between atoms: O_7  and  C_8
REMARK    6  A    between atoms: C_12  and  C_13
REMARK    7  A    between atoms: C_13  and  C_14
REMARK    8  A    between atoms: C_13  and  N_15
REMARK    9  A    between atoms: N_15  and  C_16
REMARK   10  A    between atoms: N_15  and  C_17
REMARK                            x       y       z     vdW  Elec       q    Type
REMARK                         _______ _______ _______ _____ _____    ______ ____
ROOT
ATOM      1  C   UNL     1      37.142 -38.039 -28.879  0.00  0.00    +0.134 A 
ATOM      2  C   UNL     1      38.517 -37.968 -29.092  0.00  0.00    -0.019 A 
ATOM      3  C   UNL     1      39.019 -37.042 -30.002  0.00  0.00    -0.058 A 
ATOM      4  C   UNL     1      38.144 -36.204 -30.699  0.00  0.00    -0.057 A 
ATOM      5  C   UNL     1      36.753 -36.288 -30.504  0.00  0.00    -0.027 A 
ATOM      6  C   UNL     1      36.257 -37.226 -29.586  0.00  0.00    -0.015 A 
ENDROOT
BRANCH   5   7
ATOM      7  C   UNL     1      35.791 -35.363 -31.249  0.00  0.00    +0.032 C 
ATOM      8  C   UNL     1      34.591 -36.216 -31.703  0.00  0.00    -0.045 C 
BRANCH   7   9
ATOM      9  N   UNL     1      35.403 -34.181 -30.433  0.00  0.00    -0.302 N 
ATOM     10  C   UNL     1      33.951 -34.035 -30.308  0.00  0.00    -0.012 C 
ATOM     11  C   UNL     1      35.956 -32.944 -31.006  0.00  0.00    -0.012 C 
ATOM     12  H   UNL     1      35.790 -34.340 -29.502  0.00  0.00    +0.000 HD
ENDBRANCH   7   9
ENDBRANCH   5   7
BRANCH   1  13
ATOM     13  O   UNL     1      36.676 -39.022 -27.996  0.00  0.00    -0.411 OA
BRANCH  13  16
ATOM     14  N   UNL     1      34.766 -40.326 -28.057  0.00  0.00    -0.270 N 
ATOM     15  C   UNL     1      33.934 -41.361 -28.642  0.00  0.00    +0.006 C 
ATOM     16  C   UNL     1      36.049 -40.132 -28.563  0.00  0.00    +0.408 C 
ATOM     17  O   UNL     1      36.556 -40.855 -29.415  0.00  0.00    -0.226 OA
BRANCH  14  19
ATOM     18  C   UNL     1      33.159 -38.451 -27.882  0.00  0.00    -0.049 C 
ATOM     19  C   UNL     1      34.127 -39.372 -27.155  0.00  0.00    +0.015 C 
ENDBRANCH  14  19
ENDBRANCH  13  16
ENDBRANCH   1  13
TORSDOF 5
ENDMDL
MODEL 12
REMARK VINA RESULT:    -4.875      1.790      2.639
REMARK INTER + INTRA:          -6.806
REMARK INTER:                  -6.104
REMARK INTRA:                  -0.702
REMARK UNBOUND:                -0.507
REMARK  Name = cpd227.pdb
REMARK  10 active torsions:
REMARK  status: ('A' for Active; 'I' for Inactive)
REMARK    1  A    between atoms: C_1  and  C_2
REMARK    2  A    between atoms: C_2  and  N_3
REMARK    3  A    between atoms: N_3  and  C_4
REMARK    4  A    between atoms: C_5  and  O_7
REMARK    5  A    between atoms: O_7  and  C_8
REMARK    6  A    between atoms: C_12  and  C_13
REMARK    7  A    between atoms: C_13  and  C_14
REMARK    8  A    between atoms: C_13  and  N_15
REMARK    9  A    between atoms: N_15  and  C_16
REMARK   10  A    between atoms: N_15  and  C_17
REMARK                            x       y       z     vdW  Elec       q    Type
REMARK                         _______ _______ _______ _____ _____    ______ ____
ROOT
ATOM      1  C   UNL     1      34.541 -36.797 -30.915  0.00  0.00    +0.134 A 
ATOM      2  C   UNL     1      34.333 -38.155 -31.146  0.00  0.00    -0.019 A 
ATOM      3  C   UNL     1      35.411 -39.032 -31.070  0.00  0.00    -0.058 A 
ATOM      4  C   UNL     1      36.688 -38.545 -30.775  0.00  0.00    -0.057 A 
ATOM      5  C   UNL     1      36.907 -37.172 -30.564  0.00  0.00    -0.027 A 
ATOM      6  C   UNL     1      35.815 -36.295 -30.645  0.00  0.00    -0.015 A 
ENDROOT
BRANCH   5   7
ATOM      7  C   UNL     1      38.297 -36.634 -30.224  0.00  0.00    +0.032 C 
ATOM      8  C   UNL     1      38.934 -37.608 -29.214  0.00  0.00    -0.045 C 
BRANCH   7   9
ATOM      9  N   UNL     1      39.125 -36.415 -31.441  0.00  0.00    -0.302 N 
ATOM     10  C   UNL     1      40.509 -36.862 -31.267  0.00  0.00    -0.012 C 
ATOM     11  C   UNL     1      39.131 -34.994 -31.821  0.00  0.00    -0.012 C 
ATOM     12  H   UNL     1      38.699 -36.975 -32.179  0.00  0.00    +0.000 HD
ENDBRANCH   7   9
ENDBRANCH   5   7
BRANCH   1  13
ATOM     13  O   UNL     1      33.439 -35.942 -31.056  0.00  0.00    -0.411 OA
BRANCH  13  16
ATOM     14  N   UNL     1      33.133 -33.862 -30.093  0.00  0.00    -0.270 N 
ATOM     15  C   UNL     1      32.628 -32.990 -29.049  0.00  0.00    +0.006 C 
ATOM     16  C   UNL     1      33.038 -35.240 -29.920  0.00  0.00    +0.408 C 
ATOM     17  O   UNL     1      32.639 -35.765 -28.884  0.00  0.00    -0.226 OA
BRANCH  14  19
ATOM     18  C   UNL     1      34.832 -32.579 -31.356  0.00  0.00    -0.049 C 
ATOM     19  C   UNL     1      33.470 -33.255 -31.378  0.00  0.00    +0.015 C 
ENDBRANCH  14  19
ENDBRANCH  13  16
ENDBRANCH   1  13
TORSDOF 5
ENDMDL
MODEL 13
REMARK VINA RESULT:    -4.854     18.232     19.610
REMARK INTER + INTRA:          -6.779
REMARK INTER:                  -6.121
REMARK INTRA:                  -0.658
REMARK UNBOUND:                -0.507
REMARK  Name = cpd227.pdb
REMARK  10 active torsions:
REMARK  status: ('A' for Active; 'I' for Inactive)
REMARK    1  A    between atoms: C_1  and  C_2
REMARK    2  A    between atoms: C_2  and  N_3
REMARK    3  A    between atoms: N_3  and  C_4
REMARK    4  A    between atoms: C_5  and  O_7
REMARK    5  A    between atoms: O_7  and  C_8
REMARK    6  A    between atoms: C_12  and  C_13
REMARK    7  A    between atoms: C_13  and  C_14
REMARK    8  A    between atoms: C_13  and  N_15
REMARK    9  A    between atoms: N_15  and  C_16
REMARK   10  A    between atoms: N_15  and  C_17
REMARK                            x       y       z     vdW  Elec       q    Type
REMARK                         _______ _______ _______ _____ _____    ______ ____
ROOT
ATOM      1  C   UNL     1      42.890 -20.224 -38.709  0.00  0.00    +0.134 A 
ATOM      2  C   UNL     1      41.605 -20.678 -38.997  0.00  0.00    -0.019 A 
ATOM      3  C   UNL     1      41.375 -21.364 -40.187  0.00  0.00    -0.058 A 
ATOM      4  C   UNL     1      42.426 -21.580 -41.082  0.00  0.00    -0.057 A 
ATOM      5  C   UNL     1      43.721 -21.104 -40.806  0.00  0.00    -0.027 A 
ATOM      6  C   UNL     1      43.942 -20.412 -39.606  0.00  0.00    -0.015 A 
ENDROOT
BRANCH   5   7
ATOM      7  C   UNL     1      44.879 -21.351 -41.771  0.00  0.00    +0.032 C 
ATOM      8  C   UNL     1      44.776 -20.301 -42.894  0.00  0.00    -0.045 C 
BRANCH   7   9
ATOM      9  N   UNL     1      46.197 -21.351 -41.079  0.00  0.00    -0.302 N 
ATOM     10  C   UNL     1      47.199 -20.541 -41.775  0.00  0.00    -0.012 C 
ATOM     11  C   UNL     1      46.713 -22.721 -40.935  0.00  0.00    -0.012 C 
ATOM     12  H   UNL     1      46.034 -20.939 -40.160  0.00  0.00    +0.000 HD
ENDBRANCH   7   9
ENDBRANCH   5   7
BRANCH   1  13
ATOM     13  O   UNL     1      43.065 -19.491 -37.528  0.00  0.00    -0.411 OA
BRANCH  13  16
ATOM     14  N   UNL     1      44.742 -19.872 -35.981  0.00  0.00    -0.270 N 
ATOM     15  C   UNL     1      45.244 -20.433 -34.740  0.00  0.00    +0.006 C 
ATOM     16  C   UNL     1      43.455 -20.206 -36.395  0.00  0.00    +0.408 C 
ATOM     17  O   UNL     1      42.752 -21.029 -35.818  0.00  0.00    -0.226 OA
BRANCH  14  19
ATOM     18  C   UNL     1      46.754 -19.288 -37.301  0.00  0.00    -0.049 C 
ATOM     19  C   UNL     1      45.505 -18.787 -36.591  0.00  0.00    +0.015 C 
ENDBRANCH  14  19
ENDBRANCH  13  16
ENDBRANCH   1  13
TORSDOF 5
ENDMDL
MODEL 14
REMARK VINA RESULT:    -4.847     19.951     21.896
REMARK INTER + INTRA:          -6.771
REMARK INTER:                  -6.070
REMARK INTRA:                  -0.700
REMARK UNBOUND:                -0.507
REMARK  Name = cpd227.pdb
REMARK  10 active torsions:
REMARK  status: ('A' for Active; 'I' for Inactive)
REMARK    1  A    between atoms: C_1  and  C_2
REMARK    2  A    between atoms: C_2  and  N_3
REMARK    3  A    between atoms: N_3  and  C_4
REMARK    4  A    between atoms: C_5  and  O_7
REMARK    5  A    between atoms: O_7  and  C_8
REMARK    6  A    between atoms: C_12  and  C_13
REMARK    7  A    between atoms: C_13  and  C_14
REMARK    8  A    between atoms: C_13  and  N_15
REMARK    9  A    between atoms: N_15  and  C_16
REMARK   10  A    between atoms: N_15  and  C_17
REMARK                            x       y       z     vdW  Elec       q    Type
REMARK                         _______ _______ _______ _____ _____    ______ ____
ROOT
ATOM      1  C   UNL     1      47.069 -17.764 -39.397  0.00  0.00    +0.134 A 
ATOM      2  C   UNL     1      47.179 -16.376 -39.354  0.00  0.00    -0.019 A 
ATOM      3  C   UNL     1      47.281 -15.739 -38.120  0.00  0.00    -0.058 A 
ATOM      4  C   UNL     1      47.259 -16.490 -36.943  0.00  0.00    -0.057 A 
ATOM      5  C   UNL     1      47.125 -17.890 -36.980  0.00  0.00    -0.027 A 
ATOM      6  C   UNL     1      47.021 -18.524 -38.228  0.00  0.00    -0.015 A 
ENDROOT
BRANCH   5   7
ATOM      7  C   UNL     1      47.118 -18.721 -35.697  0.00  0.00    +0.032 C 
ATOM      8  C   UNL     1      48.235 -18.174 -34.788  0.00  0.00    -0.045 C 
BRANCH   7   9
ATOM      9  N   UNL     1      45.779 -18.738 -35.048  0.00  0.00    -0.302 N 
ATOM     10  C   UNL     1      45.701 -17.835 -33.897  0.00  0.00    -0.012 C 
ATOM     11  C   UNL     1      45.427 -20.096 -34.609  0.00  0.00    -0.012 C 
ATOM     12  H   UNL     1      45.117 -18.414 -35.754  0.00  0.00    +0.000 HD
ENDBRANCH   7   9
ENDBRANCH   5   7
BRANCH   1  13
ATOM     13  O   UNL     1      46.913 -18.360 -40.656  0.00  0.00    -0.411 OA
BRANCH  13  16
ATOM     14  N   UNL     1      45.824 -20.317 -41.234  0.00  0.00    -0.270 N 
ATOM     15  C   UNL     1      44.628 -21.122 -41.403  0.00  0.00    +0.006 C 
ATOM     16  C   UNL     1      45.686 -18.968 -40.918  0.00  0.00    +0.408 C 
ATOM     17  O   UNL     1      44.602 -18.393 -40.870  0.00  0.00    -0.226 OA
BRANCH  14  19
ATOM     18  C   UNL     1      47.196 -21.885 -39.897  0.00  0.00    -0.049 C 
ATOM     19  C   UNL     1      47.103 -21.016 -41.142  0.00  0.00    +0.015 C 
ENDBRANCH  14  19
ENDBRANCH  13  16
ENDBRANCH   1  13
TORSDOF 5
ENDMDL
MODEL 15
REMARK VINA RESULT:    -4.778     32.827     35.294
REMARK INTER + INTRA:          -6.681
REMARK INTER:                  -6.170
REMARK INTRA:                  -0.511
REMARK UNBOUND:                -0.507
REMARK  Name = cpd227.pdb
REMARK  10 active torsions:
REMARK  status: ('A' for Active; 'I' for Inactive)
REMARK    1  A    between atoms: C_1  and  C_2
REMARK    2  A    between atoms: C_2  and  N_3
REMARK    3  A    between atoms: N_3  and  C_4
REMARK    4  A    between atoms: C_5  and  O_7
REMARK    5  A    between atoms: O_7  and  C_8
REMARK    6  A    between atoms: C_12  and  C_13
REMARK    7  A    between atoms: C_13  and  C_14
REMARK    8  A    between atoms: C_13  and  N_15
REMARK    9  A    between atoms: N_15  and  C_16
REMARK   10  A    between atoms: N_15  and  C_17
REMARK                            x       y       z     vdW  Elec       q    Type
REMARK                         _______ _______ _______ _____ _____    ______ ____
ROOT
ATOM      1  C   UNL     1      63.945 -13.986 -29.156  0.00  0.00    +0.134 A 
ATOM      2  C   UNL     1      63.202 -14.199 -27.997  0.00  0.00    -0.019 A 
ATOM      3  C   UNL     1      61.831 -13.957 -28.012  0.00  0.00    -0.058 A 
ATOM      4  C   UNL     1      61.217 -13.495 -29.179  0.00  0.00    -0.057 A 
ATOM      5  C   UNL     1      61.967 -13.257 -30.345  0.00  0.00    -0.027 A 
ATOM      6  C   UNL     1      63.348 -13.501 -30.320  0.00  0.00    -0.015 A 
ENDROOT
BRANCH   5   7
ATOM      7  C   UNL     1      61.299 -12.768 -31.630  0.00  0.00    +0.032 C 
ATOM      8  C   UNL     1      60.182 -13.769 -31.979  0.00  0.00    -0.045 C 
BRANCH   7   9
ATOM      9  N   UNL     1      60.822 -11.363 -31.514  0.00  0.00    -0.302 N 
ATOM     10  C   UNL     1      59.552 -11.141 -32.209  0.00  0.00    -0.012 C 
ATOM     11  C   UNL     1      61.822 -10.424 -32.046  0.00  0.00    -0.012 C 
ATOM     12  H   UNL     1      60.676 -11.194 -30.519  0.00  0.00    +0.000 HD
ENDBRANCH   7   9
ENDBRANCH   5   7
BRANCH   1  13
ATOM     13  O   UNL     1      65.330 -14.189 -29.081  0.00  0.00    -0.411 OA
BRANCH  13  16
ATOM     14  N   UNL     1      67.121 -14.804 -30.409  0.00  0.00    -0.270 N 
ATOM     15  C   UNL     1      67.872 -15.771 -31.189  0.00  0.00    +0.006 C 
ATOM     16  C   UNL     1      65.869 -15.166 -29.919  0.00  0.00    +0.408 C 
ATOM     17  O   UNL     1      65.316 -16.227 -30.193  0.00  0.00    -0.226 OA
BRANCH  14  19
ATOM     18  C   UNL     1      68.940 -13.931 -28.974  0.00  0.00    -0.049 C 
ATOM     19  C   UNL     1      67.824 -13.607 -29.956  0.00  0.00    +0.015 C 
ENDBRANCH  14  19
ENDBRANCH  13  16
ENDBRANCH   1  13
TORSDOF 5
ENDMDL
MODEL 16
REMARK VINA RESULT:    -4.760     16.691     18.671
REMARK INTER + INTRA:          -6.657
REMARK INTER:                  -6.018
REMARK INTRA:                  -0.639
REMARK UNBOUND:                -0.507
REMARK  Name = cpd227.pdb
REMARK  10 active torsions:
REMARK  status: ('A' for Active; 'I' for Inactive)
REMARK    1  A    between atoms: C_1  and  C_2
REMARK    2  A    between atoms: C_2  and  N_3
REMARK    3  A    between atoms: N_3  and  C_4
REMARK    4  A    between atoms: C_5  and  O_7
REMARK    5  A    between atoms: O_7  and  C_8
REMARK    6  A    between atoms: C_12  and  C_13
REMARK    7  A    between atoms: C_13  and  C_14
REMARK    8  A    between atoms: C_13  and  N_15
REMARK    9  A    between atoms: N_15  and  C_16
REMARK   10  A    between atoms: N_15  and  C_17
REMARK                            x       y       z     vdW  Elec       q    Type
REMARK                         _______ _______ _______ _____ _____    ______ ____
ROOT
ATOM      1  C   UNL     1      41.858 -21.210 -39.465  0.00  0.00    +0.134 A 
ATOM      2  C   UNL     1      41.374 -21.694 -40.678  0.00  0.00    -0.019 A 
ATOM      3  C   UNL     1      42.255 -21.871 -41.741  0.00  0.00    -0.058 A 
ATOM      4  C   UNL     1      43.606 -21.551 -41.588  0.00  0.00    -0.057 A 
ATOM      5  C   UNL     1      44.095 -21.040 -40.372  0.00  0.00    -0.027 A 
ATOM      6  C   UNL     1      43.200 -20.863 -39.307  0.00  0.00    -0.015 A 
ENDROOT
BRANCH   5   7
ATOM      7  C   UNL     1      45.575 -20.703 -40.191  0.00  0.00    +0.032 C 
ATOM      8  C   UNL     1      45.992 -21.193 -38.791  0.00  0.00    -0.045 C 
BRANCH   7   9
ATOM      9  N   UNL     1      46.414 -21.259 -41.288  0.00  0.00    -0.302 N 
ATOM     10  C   UNL     1      47.172 -22.442 -40.872  0.00  0.00    -0.012 C 
ATOM     11  C   UNL     1      47.355 -20.247 -41.791  0.00  0.00    -0.012 C 
ATOM     12  H   UNL     1      45.768 -21.536 -42.027  0.00  0.00    +0.000 HD
ENDBRANCH   7   9
ENDBRANCH   5   7
BRANCH   1  13
ATOM     13  O   UNL     1      40.927 -20.996 -38.438  0.00  0.00    -0.411 OA
BRANCH  13  16
ATOM     14  N   UNL     1      41.072 -20.988 -36.130  0.00  0.00    -0.270 N 
ATOM     15  C   UNL     1      41.083 -21.653 -34.840  0.00  0.00    +0.006 C 
ATOM     16  C   UNL     1      41.074 -21.766 -37.285  0.00  0.00    +0.408 C 
ATOM     17  O   UNL     1      41.186 -22.988 -37.276  0.00  0.00    -0.226 OA
BRANCH  14  19
ATOM     18  C   UNL     1      42.047 -18.720 -35.955  0.00  0.00    -0.049 C 
ATOM     19  C   UNL     1      40.791 -19.556 -36.150  0.00  0.00    +0.015 C 
ENDBRANCH  14  19
ENDBRANCH  13  16
ENDBRANCH   1  13
TORSDOF 5
ENDMDL
MODEL 17
REMARK VINA RESULT:    -4.757     19.950     21.400
REMARK INTER + INTRA:          -6.653
REMARK INTER:                  -6.059
REMARK INTRA:                  -0.594
REMARK UNBOUND:                -0.507
REMARK  Name = cpd227.pdb
REMARK  10 active torsions:
REMARK  status: ('A' for Active; 'I' for Inactive)
REMARK    1  A    between atoms: C_1  and  C_2
REMARK    2  A    between atoms: C_2  and  N_3
REMARK    3  A    between atoms: N_3  and  C_4
REMARK    4  A    between atoms: C_5  and  O_7
REMARK    5  A    between atoms: O_7  and  C_8
REMARK    6  A    between atoms: C_12  and  C_13
REMARK    7  A    between atoms: C_13  and  C_14
REMARK    8  A    between atoms: C_13  and  N_15
REMARK    9  A    between atoms: N_15  and  C_16
REMARK   10  A    between atoms: N_15  and  C_17
REMARK                            x       y       z     vdW  Elec       q    Type
REMARK                         _______ _______ _______ _____ _____    ______ ____
ROOT
ATOM      1  C   UNL     1      45.358 -18.101 -39.451  0.00  0.00    +0.134 A 
ATOM      2  C   UNL     1      44.694 -17.319 -40.393  0.00  0.00    -0.019 A 
ATOM      3  C   UNL     1      44.324 -17.886 -41.610  0.00  0.00    -0.058 A 
ATOM      4  C   UNL     1      44.630 -19.223 -41.879  0.00  0.00    -0.057 A 
ATOM      5  C   UNL     1      45.321 -20.010 -40.939  0.00  0.00    -0.027 A 
ATOM      6  C   UNL     1      45.692 -19.429 -39.717  0.00  0.00    -0.015 A 
ENDROOT
BRANCH   5   7
ATOM      7  C   UNL     1      45.644 -21.477 -41.219  0.00  0.00    +0.032 C 
ATOM      8  C   UNL     1      45.200 -21.780 -42.663  0.00  0.00    -0.045 C 
BRANCH   7   9
ATOM      9  N   UNL     1      47.075 -21.795 -40.959  0.00  0.00    -0.302 N 
ATOM     10  C   UNL     1      47.978 -21.141 -41.909  0.00  0.00    -0.012 C 
ATOM     11  C   UNL     1      47.306 -23.247 -41.010  0.00  0.00    -0.012 C 
ATOM     12  H   UNL     1      47.280 -21.440 -40.025  0.00  0.00    +0.000 HD
ENDBRANCH   7   9
ENDBRANCH   5   7
BRANCH   1  13
ATOM     13  O   UNL     1      45.761 -17.476 -38.263  0.00  0.00    -0.411 OA
BRANCH  13  16
ATOM     14  N   UNL     1      46.170 -18.452 -36.206  0.00  0.00    -0.270 N 
ATOM     15  C   UNL     1      45.763 -18.868 -34.876  0.00  0.00    +0.006 C 
ATOM     16  C   UNL     1      45.203 -17.957 -37.078  0.00  0.00    +0.408 C 
ATOM     17  O   UNL     1      44.003 -17.945 -36.820  0.00  0.00    -0.226 OA
BRANCH  14  19
ATOM     18  C   UNL     1      48.445 -18.821 -35.305  0.00  0.00    -0.049 C 
ATOM     19  C   UNL     1      47.600 -18.325 -36.468  0.00  0.00    +0.015 C 
ENDBRANCH  14  19
ENDBRANCH  13  16
ENDBRANCH   1  13
TORSDOF 5
ENDMDL
MODEL 18
REMARK VINA RESULT:    -4.746     16.599     18.990
REMARK INTER + INTRA:          -6.640
REMARK INTER:                  -5.991
REMARK INTRA:                  -0.649
REMARK UNBOUND:                -0.507
REMARK  Name = cpd227.pdb
REMARK  10 active torsions:
REMARK  status: ('A' for Active; 'I' for Inactive)
REMARK    1  A    between atoms: C_1  and  C_2
REMARK    2  A    between atoms: C_2  and  N_3
REMARK    3  A    between atoms: N_3  and  C_4
REMARK    4  A    between atoms: C_5  and  O_7
REMARK    5  A    between atoms: O_7  and  C_8
REMARK    6  A    between atoms: C_12  and  C_13
REMARK    7  A    between atoms: C_13  and  C_14
REMARK    8  A    between atoms: C_13  and  N_15
REMARK    9  A    between atoms: N_15  and  C_16
REMARK   10  A    between atoms: N_15  and  C_17
REMARK                            x       y       z     vdW  Elec       q    Type
REMARK                         _______ _______ _______ _____ _____    ______ ____
ROOT
ATOM      1  C   UNL     1      43.058 -20.466 -38.855  0.00  0.00    +0.134 A 
ATOM      2  C   UNL     1      42.625 -21.431 -39.761  0.00  0.00    -0.019 A 
ATOM      3  C   UNL     1      41.560 -22.259 -39.418  0.00  0.00    -0.058 A 
ATOM      4  C   UNL     1      40.945 -22.124 -38.170  0.00  0.00    -0.057 A 
ATOM      5  C   UNL     1      41.394 -21.166 -37.243  0.00  0.00    -0.027 A 
ATOM      6  C   UNL     1      42.469 -20.338 -37.597  0.00  0.00    -0.015 A 
ENDROOT
BRANCH   5   7
ATOM      7  C   UNL     1      40.716 -21.000 -35.883  0.00  0.00    +0.032 C 
ATOM      8  C   UNL     1      39.227 -21.354 -36.064  0.00  0.00    -0.045 C 
BRANCH   7   9
ATOM      9  N   UNL     1      41.389 -21.795 -34.820  0.00  0.00    -0.302 N 
ATOM     10  C   UNL     1      40.486 -22.751 -34.176  0.00  0.00    -0.012 C 
ATOM     11  C   UNL     1      41.960 -20.915 -33.790  0.00  0.00    -0.012 C 
ATOM     12  H   UNL     1      42.131 -22.319 -35.285  0.00  0.00    +0.000 HD
ENDBRANCH   7   9
ENDBRANCH   5   7
BRANCH   1  13
ATOM     13  O   UNL     1      44.168 -19.691 -39.219  0.00  0.00    -0.411 OA
BRANCH  13  16
ATOM     14  N   UNL     1      45.817 -20.149 -40.776  0.00  0.00    -0.270 N 
ATOM     15  C   UNL     1      47.110 -20.685 -41.159  0.00  0.00    +0.006 C 
ATOM     16  C   UNL     1      45.354 -20.376 -39.482  0.00  0.00    +0.408 C 
ATOM     17  O   UNL     1      45.936 -21.092 -38.672  0.00  0.00    -0.226 OA
BRANCH  14  19
ATOM     18  C   UNL     1      44.407 -19.853 -42.788  0.00  0.00    -0.049 C 
ATOM     19  C   UNL     1      45.192 -19.181 -41.672  0.00  0.00    +0.015 C 
ENDBRANCH  14  19
ENDBRANCH  13  16
ENDBRANCH   1  13
TORSDOF 5
ENDMDL
MODEL 19
REMARK VINA RESULT:    -4.656     36.047     38.585
REMARK INTER + INTRA:          -6.523
REMARK INTER:                  -5.867
REMARK INTRA:                  -0.656
REMARK UNBOUND:                -0.507
REMARK  Name = cpd227.pdb
REMARK  10 active torsions:
REMARK  status: ('A' for Active; 'I' for Inactive)
REMARK    1  A    between atoms: C_1  and  C_2
REMARK    2  A    between atoms: C_2  and  N_3
REMARK    3  A    between atoms: N_3  and  C_4
REMARK    4  A    between atoms: C_5  and  O_7
REMARK    5  A    between atoms: O_7  and  C_8
REMARK    6  A    between atoms: C_12  and  C_13
REMARK    7  A    between atoms: C_13  and  C_14
REMARK    8  A    between atoms: C_13  and  N_15
REMARK    9  A    between atoms: N_15  and  C_16
REMARK   10  A    between atoms: N_15  and  C_17
REMARK                            x       y       z     vdW  Elec       q    Type
REMARK                         _______ _______ _______ _____ _____    ______ ____
ROOT
ATOM      1  C   UNL     1      63.728 -21.615  -6.522  0.00  0.00    +0.134 A 
ATOM      2  C   UNL     1      63.653 -21.150  -7.833  0.00  0.00    -0.019 A 
ATOM      3  C   UNL     1      63.172 -21.996  -8.829  0.00  0.00    -0.058 A 
ATOM      4  C   UNL     1      62.783 -23.300  -8.510  0.00  0.00    -0.057 A 
ATOM      5  C   UNL     1      62.879 -23.781  -7.191  0.00  0.00    -0.027 A 
ATOM      6  C   UNL     1      63.366 -22.922  -6.194  0.00  0.00    -0.015 A 
ENDROOT
BRANCH   5   7
ATOM      7  C   UNL     1      62.440 -25.199  -6.830  0.00  0.00    +0.032 C 
ATOM      8  C   UNL     1      61.950 -25.874  -8.126  0.00  0.00    -0.045 C 
BRANCH   7   9
ATOM      9  N   UNL     1      63.514 -25.960  -6.136  0.00  0.00    -0.302 N 
ATOM     10  C   UNL     1      64.700 -26.150  -6.973  0.00  0.00    -0.012 C 
ATOM     11  C   UNL     1      63.026 -27.277  -5.700  0.00  0.00    -0.012 C 
ATOM     12  H   UNL     1      63.780 -25.399  -5.326  0.00  0.00    +0.000 HD
ENDBRANCH   7   9
ENDBRANCH   5   7
BRANCH   1  13
ATOM     13  O   UNL     1      64.269 -20.749  -5.561  0.00  0.00    -0.411 OA
BRANCH  13  16
ATOM     14  N   UNL     1      64.343 -21.139  -3.283  0.00  0.00    -0.270 N 
ATOM     15  C   UNL     1      63.828 -20.988  -1.935  0.00  0.00    +0.006 C 
ATOM     16  C   UNL     1      63.589 -20.653  -4.347  0.00  0.00    +0.408 C 
ATOM     17  O   UNL     1      62.460 -20.188  -4.219  0.00  0.00    -0.226 OA
BRANCH  14  19
ATOM     18  C   UNL     1      65.895 -23.064  -3.405  0.00  0.00    -0.049 C 
ATOM     19  C   UNL     1      65.736 -21.551  -3.433  0.00  0.00    +0.015 C 
ENDBRANCH  14  19
ENDBRANCH  13  16
ENDBRANCH   1  13
TORSDOF 5
ENDMDL
MODEL 20
REMARK VINA RESULT:    -4.453     16.540     18.388
REMARK INTER + INTRA:          -6.261
REMARK INTER:                  -5.688
REMARK INTRA:                  -0.573
REMARK UNBOUND:                -0.507
REMARK  Name = cpd227.pdb
REMARK  10 active torsions:
REMARK  status: ('A' for Active; 'I' for Inactive)
REMARK    1  A    between atoms: C_1  and  C_2
REMARK    2  A    between atoms: C_2  and  N_3
REMARK    3  A    between atoms: N_3  and  C_4
REMARK    4  A    between atoms: C_5  and  O_7
REMARK    5  A    between atoms: O_7  and  C_8
REMARK    6  A    between atoms: C_12  and  C_13
REMARK    7  A    between atoms: C_13  and  C_14
REMARK    8  A    between atoms: C_13  and  N_15
REMARK    9  A    between atoms: N_15  and  C_16
REMARK   10  A    between atoms: N_15  and  C_17
REMARK                            x       y       z     vdW  Elec       q    Type
REMARK                         _______ _______ _______ _____ _____    ______ ____
ROOT
ATOM      1  C   UNL     1      42.939 -20.519 -37.688  0.00  0.00    +0.134 A 
ATOM      2  C   UNL     1      43.823 -20.026 -36.732  0.00  0.00    -0.019 A 
ATOM      3  C   UNL     1      45.176 -19.925 -37.043  0.00  0.00    -0.058 A 
ATOM      4  C   UNL     1      45.635 -20.327 -38.301  0.00  0.00    -0.057 A 
ATOM      5  C   UNL     1      44.749 -20.846 -39.262  0.00  0.00    -0.027 A 
ATOM      6  C   UNL     1      43.387 -20.946 -38.938  0.00  0.00    -0.015 A 
ENDROOT
BRANCH   5   7
ATOM      7  C   UNL     1      45.240 -21.271 -40.645  0.00  0.00    +0.032 C 
ATOM      8  C   UNL     1      44.544 -20.366 -41.680  0.00  0.00    -0.045 C 
BRANCH   7   9
ATOM      9  N   UNL     1      46.725 -21.251 -40.744  0.00  0.00    -0.302 N 
ATOM     10  C   UNL     1      47.210 -20.299 -41.745  0.00  0.00    -0.012 C 
ATOM     11  C   UNL     1      47.246 -22.587 -41.070  0.00  0.00    -0.012 C 
ATOM     12  H   UNL     1      47.065 -20.955 -39.829  0.00  0.00    +0.000 HD
ENDBRANCH   7   9
ENDBRANCH   5   7
BRANCH   1  13
ATOM     13  O   UNL     1      41.595 -20.656 -37.314  0.00  0.00    -0.411 OA
BRANCH  13  16
ATOM     14  N   UNL     1      40.794 -21.754 -35.443  0.00  0.00    -0.270 N 
ATOM     15  C   UNL     1      40.243 -22.917 -34.772  0.00  0.00    +0.006 C 
ATOM     16  C   UNL     1      41.216 -21.880 -36.764  0.00  0.00    +0.408 C 
ATOM     17  O   UNL     1      41.241 -22.949 -37.366  0.00  0.00    -0.226 OA
BRANCH  14  19
ATOM     18  C   UNL     1      41.576 -20.284 -33.611  0.00  0.00    -0.049 C 
ATOM     19  C   UNL     1      40.632 -20.457 -34.792  0.00  0.00    +0.015 C 
ENDBRANCH  14  19
ENDBRANCH  13  16
ENDBRANCH   1  13
TORSDOF 5
ENDMDL
