MODEL 1
REMARK VINA RESULT:    -8.977      0.000      0.000
REMARK INTER + INTRA:         -17.724
REMARK INTER:                 -16.325
REMARK INTRA:                  -1.399
REMARK UNBOUND:                -1.399
REMARK  Name = cpd199.pdb
REMARK  16 active torsions:
REMARK  status: ('A' for Active; 'I' for Inactive)
REMARK    1  A    between atoms: C_1  and  N_2
REMARK    2  A    between atoms: N_2  and  C_3
REMARK    3  A    between atoms: N_2  and  C_4
REMARK    4  A    between atoms: C_7  and  C_8
REMARK    5  A    between atoms: C_8  and  C_9
REMARK    6  A    between atoms: N_11  and  C_12
REMARK    7  A    between atoms: C_12  and  C_13
REMARK    8  A    between atoms: C_13  and  C_14
REMARK    9  A    between atoms: C_14  and  C_15
REMARK   10  A    between atoms: C_15  and  C_16
REMARK   11  A    between atoms: C_16  and  C_17
REMARK   12  A    between atoms: C_17  and  C_18
REMARK   13  A    between atoms: C_18  and  C_19
REMARK   14  A    between atoms: C_19  and  C_20
REMARK   15  A    between atoms: C_20  and  N_21
REMARK   16  A    between atoms: N_21  and  C_22
REMARK                            x       y       z     vdW  Elec       q    Type
REMARK                         _______ _______ _______ _____ _____    ______ ____
ROOT
ATOM      1  C   UNL     1      41.157 -36.979 -31.004  0.00  0.00    -0.053 C 
ENDROOT
BRANCH   1   2
ATOM      2  C   UNL     1      42.247 -37.801 -31.691  0.00  0.00    -0.052 C 
BRANCH   2   3
ATOM      3  C   UNL     1      43.358 -38.210 -30.724  0.00  0.00    -0.037 C 
BRANCH   3   4
ATOM      4  C   UNL     1      43.270 -39.687 -30.336  0.00  0.00    +0.012 C 
BRANCH   4   7
ATOM      5  C   UNL     1      44.429 -40.602 -28.259  0.00  0.00    +0.217 C 
ATOM      6  O   UNL     1      44.421 -40.603 -27.026  0.00  0.00    -0.275 OA
ATOM      7  N   UNL     1      43.471 -39.885 -28.913  0.00  0.00    -0.315 N 
ATOM      8  H   UNL     1      42.817 -39.434 -28.331  0.00  0.00    +0.000 HD
BRANCH   5   9
ATOM      9  C   UNL     1      45.473 -41.382 -29.043  0.00  0.00    +0.049 C 
BRANCH   9  13
ATOM     10  C   UNL     1      48.940 -39.008 -30.275  0.00  0.00    +0.029 A 
ATOM     11  C   UNL     1      48.563 -40.187 -30.942  0.00  0.00    -0.040 A 
ATOM     12  C   UNL     1      47.448 -40.947 -30.554  0.00  0.00    -0.056 A 
ATOM     13  C   UNL     1      46.659 -40.555 -29.473  0.00  0.00    -0.039 A 
ATOM     14  C   UNL     1      46.976 -39.355 -28.835  0.00  0.00    -0.056 A 
ATOM     15  C   UNL     1      48.093 -38.605 -29.230  0.00  0.00    -0.040 A 
BRANCH  10  17
ATOM     16  C   UNL     1      50.247 -36.926 -30.089  0.00  0.00    +0.000 C 
ATOM     17  N   UNL     1      50.060 -38.259 -30.659  0.00  0.00    -0.336 N 
ATOM     18  C   UNL     1      51.285 -38.958 -31.040  0.00  0.00    +0.000 C 
ENDBRANCH  10  17
ENDBRANCH   9  13
ENDBRANCH   5   9
ENDBRANCH   4   7
ENDBRANCH   3   4
ENDBRANCH   2   3
ENDBRANCH   1   2
BRANCH   1  19
ATOM     19  C   UNL     1      41.528 -35.493 -30.987  0.00  0.00    -0.053 C 
BRANCH  19  20
ATOM     20  C   UNL     1      40.866 -34.721 -32.134  0.00  0.00    -0.053 C 
BRANCH  20  21
ATOM     21  C   UNL     1      39.489 -34.144 -31.781  0.00  0.00    -0.052 C 
BRANCH  21  22
ATOM     22  C   UNL     1      38.303 -34.973 -32.300  0.00  0.00    -0.040 C 
BRANCH  22  23
ATOM     23  C   UNL     1      37.098 -34.994 -31.357  0.00  0.00    -0.004 C 
BRANCH  23  24
ATOM     24  N   UNL     1      36.250 -36.184 -31.466  0.00  0.00    -0.311 N 
ATOM     25  H   UNL     1      36.559 -36.699 -32.290  0.00  0.00    +0.000 HD
ATOM     26  H   UNL     1      35.301 -35.812 -31.499  0.00  0.00    +0.000 HD
BRANCH  24  27
ATOM     27  C   UNL     1      36.227 -37.137 -30.339  0.00  0.00    +0.020 C 
ATOM     28  C   UNL     1      35.375 -38.378 -30.713  0.00  0.00    -0.032 C 
ATOM     29  C   UNL     1      35.237 -39.331 -29.510  0.00  0.00    -0.039 C 
ATOM     30  C   UNL     1      34.533 -38.597 -28.359  0.00  0.00    -0.047 C 
ATOM     31  C   UNL     1      35.356 -37.368 -27.944  0.00  0.00    -0.039 C 
ATOM     32  C   UNL     1      36.748 -37.823 -27.481  0.00  0.00    -0.047 C 
ATOM     33  C   UNL     1      37.465 -38.556 -28.623  0.00  0.00    -0.039 C 
ATOM     34  C   UNL     1      36.634 -39.777 -29.049  0.00  0.00    -0.047 C 
ATOM     35  C   UNL     1      37.615 -37.602 -29.822  0.00  0.00    -0.032 C 
ATOM     36  C   UNL     1      35.503 -36.428 -29.152  0.00  0.00    -0.032 C 
ENDBRANCH  24  27
ENDBRANCH  23  24
ENDBRANCH  22  23
ENDBRANCH  21  22
ENDBRANCH  20  21
ENDBRANCH  19  20
ENDBRANCH   1  19
TORSDOF 14
ENDMDL
MODEL 2
REMARK VINA RESULT:    -7.968      2.435      3.730
REMARK INTER + INTRA:         -15.889
REMARK INTER:                 -15.517
REMARK INTRA:                  -0.372
REMARK UNBOUND:                -1.399
REMARK  Name = cpd199.pdb
REMARK  16 active torsions:
REMARK  status: ('A' for Active; 'I' for Inactive)
REMARK    1  A    between atoms: C_1  and  N_2
REMARK    2  A    between atoms: N_2  and  C_3
REMARK    3  A    between atoms: N_2  and  C_4
REMARK    4  A    between atoms: C_7  and  C_8
REMARK    5  A    between atoms: C_8  and  C_9
REMARK    6  A    between atoms: N_11  and  C_12
REMARK    7  A    between atoms: C_12  and  C_13
REMARK    8  A    between atoms: C_13  and  C_14
REMARK    9  A    between atoms: C_14  and  C_15
REMARK   10  A    between atoms: C_15  and  C_16
REMARK   11  A    between atoms: C_16  and  C_17
REMARK   12  A    between atoms: C_17  and  C_18
REMARK   13  A    between atoms: C_18  and  C_19
REMARK   14  A    between atoms: C_19  and  C_20
REMARK   15  A    between atoms: C_20  and  N_21
REMARK   16  A    between atoms: N_21  and  C_22
REMARK                            x       y       z     vdW  Elec       q    Type
REMARK                         _______ _______ _______ _____ _____    ______ ____
ROOT
ATOM      1  C   UNL     1      40.886 -37.864 -29.610  0.00  0.00    -0.053 C 
ENDROOT
BRANCH   1   2
ATOM      2  C   UNL     1      41.563 -36.985 -30.662  0.00  0.00    -0.052 C 
BRANCH   2   3
ATOM      3  C   UNL     1      42.936 -37.520 -31.066  0.00  0.00    -0.037 C 
BRANCH   3   4
ATOM      4  C   UNL     1      43.108 -38.997 -30.707  0.00  0.00    +0.012 C 
BRANCH   4   7
ATOM      5  C   UNL     1      44.098 -39.973 -28.570  0.00  0.00    +0.217 C 
ATOM      6  O   UNL     1      44.030 -39.961 -27.339  0.00  0.00    -0.275 OA
ATOM      7  N   UNL     1      43.227 -39.195 -29.274  0.00  0.00    -0.315 N 
ATOM      8  H   UNL     1      42.580 -38.692 -28.727  0.00  0.00    +0.000 HD
BRANCH   5   9
ATOM      9  C   UNL     1      45.118 -40.835 -29.297  0.00  0.00    +0.049 C 
BRANCH   9  13
ATOM     10  C   UNL     1      48.934 -38.827 -30.061  0.00  0.00    +0.029 A 
ATOM     11  C   UNL     1      48.640 -40.100 -30.579  0.00  0.00    -0.040 A 
ATOM     12  C   UNL     1      47.414 -40.745 -30.342  0.00  0.00    -0.056 A 
ATOM     13  C   UNL     1      46.426 -40.135 -29.569  0.00  0.00    -0.039 A 
ATOM     14  C   UNL     1      46.670 -38.844 -29.096  0.00  0.00    -0.056 A 
ATOM     15  C   UNL     1      47.899 -38.212 -29.337  0.00  0.00    -0.040 A 
BRANCH  10  17
ATOM     16  C   UNL     1      50.691 -37.289 -29.270  0.00  0.00    +0.000 C 
ATOM     17  N   UNL     1      50.162 -38.194 -30.290  0.00  0.00    -0.336 N 
ATOM     18  C   UNL     1      51.162 -38.863 -31.117  0.00  0.00    +0.000 C 
ENDBRANCH  10  17
ENDBRANCH   9  13
ENDBRANCH   5   9
ENDBRANCH   4   7
ENDBRANCH   3   4
ENDBRANCH   2   3
ENDBRANCH   1   2
BRANCH   1  19
ATOM     19  C   UNL     1      39.392 -37.542 -29.514  0.00  0.00    -0.053 C 
BRANCH  19  20
ATOM     20  C   UNL     1      38.894 -36.755 -30.731  0.00  0.00    -0.053 C 
BRANCH  20  21
ATOM     21  C   UNL     1      37.507 -36.126 -30.539  0.00  0.00    -0.052 C 
BRANCH  21  22
ATOM     22  C   UNL     1      36.663 -36.779 -29.434  0.00  0.00    -0.040 C 
BRANCH  22  23
ATOM     23  C   UNL     1      35.158 -36.764 -29.707  0.00  0.00    -0.004 C 
BRANCH  23  24
ATOM     24  N   UNL     1      34.758 -36.047 -30.921  0.00  0.00    -0.311 N 
ATOM     25  H   UNL     1      34.246 -36.707 -31.505  0.00  0.00    +0.000 HD
ATOM     26  H   UNL     1      35.636 -35.695 -31.304  0.00  0.00    +0.000 HD
BRANCH  24  27
ATOM     27  C   UNL     1      33.916 -34.842 -30.781  0.00  0.00    +0.020 C 
ATOM     28  C   UNL     1      34.530 -33.670 -31.590  0.00  0.00    -0.032 C 
ATOM     29  C   UNL     1      33.735 -32.371 -31.364  0.00  0.00    -0.039 C 
ATOM     30  C   UNL     1      33.782 -32.000 -29.874  0.00  0.00    -0.047 C 
ATOM     31  C   UNL     1      33.164 -33.129 -29.036  0.00  0.00    -0.039 C 
ATOM     32  C   UNL     1      31.703 -33.335 -29.461  0.00  0.00    -0.047 C 
ATOM     33  C   UNL     1      31.640 -33.710 -30.949  0.00  0.00    -0.039 C 
ATOM     34  C   UNL     1      32.273 -32.587 -31.787  0.00  0.00    -0.047 C 
ATOM     35  C   UNL     1      32.424 -35.014 -31.176  0.00  0.00    -0.032 C 
ATOM     36  C   UNL     1      33.953 -34.427 -29.277  0.00  0.00    -0.032 C 
ENDBRANCH  24  27
ENDBRANCH  23  24
ENDBRANCH  22  23
ENDBRANCH  21  22
ENDBRANCH  20  21
ENDBRANCH  19  20
ENDBRANCH   1  19
TORSDOF 14
ENDMDL
MODEL 3
REMARK VINA RESULT:    -6.871     16.417     19.044
REMARK INTER + INTRA:         -13.894
REMARK INTER:                 -10.742
REMARK INTRA:                  -3.152
REMARK UNBOUND:                -1.399
REMARK  Name = cpd199.pdb
REMARK  16 active torsions:
REMARK  status: ('A' for Active; 'I' for Inactive)
REMARK    1  A    between atoms: C_1  and  N_2
REMARK    2  A    between atoms: N_2  and  C_3
REMARK    3  A    between atoms: N_2  and  C_4
REMARK    4  A    between atoms: C_7  and  C_8
REMARK    5  A    between atoms: C_8  and  C_9
REMARK    6  A    between atoms: N_11  and  C_12
REMARK    7  A    between atoms: C_12  and  C_13
REMARK    8  A    between atoms: C_13  and  C_14
REMARK    9  A    between atoms: C_14  and  C_15
REMARK   10  A    between atoms: C_15  and  C_16
REMARK   11  A    between atoms: C_16  and  C_17
REMARK   12  A    between atoms: C_17  and  C_18
REMARK   13  A    between atoms: C_18  and  C_19
REMARK   14  A    between atoms: C_19  and  C_20
REMARK   15  A    between atoms: C_20  and  N_21
REMARK   16  A    between atoms: N_21  and  C_22
REMARK                            x       y       z     vdW  Elec       q    Type
REMARK                         _______ _______ _______ _____ _____    ______ ____
ROOT
ATOM      1  C   UNL     1      42.135 -18.608 -35.567  0.00  0.00    -0.053 C 
ENDROOT
BRANCH   1   2
ATOM      2  C   UNL     1      42.309 -18.068 -34.148  0.00  0.00    -0.052 C 
BRANCH   2   3
ATOM      3  C   UNL     1      43.373 -18.837 -33.364  0.00  0.00    -0.037 C 
BRANCH   3   4
ATOM      4  C   UNL     1      43.758 -20.149 -34.048  0.00  0.00    +0.012 C 
BRANCH   4   7
ATOM      5  C   UNL     1      46.190 -19.954 -34.784  0.00  0.00    +0.217 C 
ATOM      6  O   UNL     1      47.348 -20.276 -34.507  0.00  0.00    -0.275 OA
ATOM      7  N   UNL     1      45.186 -20.399 -33.976  0.00  0.00    -0.315 N 
ATOM      8  H   UNL     1      45.472 -20.977 -33.232  0.00  0.00    +0.000 HD
BRANCH   5   9
ATOM      9  C   UNL     1      45.877 -19.090 -35.995  0.00  0.00    +0.049 C 
BRANCH   9  13
ATOM     10  C   UNL     1      45.655 -21.352 -39.737  0.00  0.00    +0.029 A 
ATOM     11  C   UNL     1      44.516 -21.072 -38.963  0.00  0.00    -0.040 A 
ATOM     12  C   UNL     1      44.582 -20.340 -37.765  0.00  0.00    -0.056 A 
ATOM     13  C   UNL     1      45.802 -19.858 -37.291  0.00  0.00    -0.039 A 
ATOM     14  C   UNL     1      46.938 -20.070 -38.075  0.00  0.00    -0.056 A 
ATOM     15  C   UNL     1      46.859 -20.804 -39.268  0.00  0.00    -0.040 A 
BRANCH  10  17
ATOM     16  C   UNL     1      44.684 -21.644 -41.985  0.00  0.00    +0.000 C 
ATOM     17  N   UNL     1      45.585 -22.093 -40.925  0.00  0.00    -0.336 N 
ATOM     18  C   UNL     1      46.764 -22.831 -41.371  0.00  0.00    +0.000 C 
ENDBRANCH  10  17
ENDBRANCH   9  13
ENDBRANCH   5   9
ENDBRANCH   4   7
ENDBRANCH   3   4
ENDBRANCH   2   3
ENDBRANCH   1   2
BRANCH   1  19
ATOM     19  C   UNL     1      41.829 -17.470 -36.546  0.00  0.00    -0.053 C 
BRANCH  19  20
ATOM     20  C   UNL     1      41.362 -17.993 -37.909  0.00  0.00    -0.053 C 
BRANCH  20  21
ATOM     21  C   UNL     1      41.194 -19.517 -37.965  0.00  0.00    -0.052 C 
BRANCH  21  22
ATOM     22  C   UNL     1      39.994 -19.991 -38.800  0.00  0.00    -0.040 C 
BRANCH  22  23
ATOM     23  C   UNL     1      39.234 -21.168 -38.186  0.00  0.00    -0.004 C 
BRANCH  23  24
ATOM     24  N   UNL     1      40.025 -22.013 -37.289  0.00  0.00    -0.311 N 
ATOM     25  H   UNL     1      40.991 -21.695 -37.350  0.00  0.00    +0.000 HD
ATOM     26  H   UNL     1      39.843 -22.962 -37.615  0.00  0.00    +0.000 HD
BRANCH  24  27
ATOM     27  C   UNL     1      39.666 -22.047 -35.856  0.00  0.00    +0.020 C 
ATOM     28  C   UNL     1      40.945 -22.222 -34.996  0.00  0.00    -0.032 C 
ATOM     29  C   UNL     1      40.585 -22.380 -33.506  0.00  0.00    -0.039 C 
ATOM     30  C   UNL     1      39.712 -23.631 -33.325  0.00  0.00    -0.047 C 
ATOM     31  C   UNL     1      38.422 -23.490 -34.148  0.00  0.00    -0.039 C 
ATOM     32  C   UNL     1      37.647 -22.255 -33.669  0.00  0.00    -0.047 C 
ATOM     33  C   UNL     1      38.507 -20.996 -33.847  0.00  0.00    -0.039 C 
ATOM     34  C   UNL     1      39.805 -21.144 -33.035  0.00  0.00    -0.047 C 
ATOM     35  C   UNL     1      38.858 -20.828 -35.336  0.00  0.00    -0.032 C 
ATOM     36  C   UNL     1      38.788 -23.317 -35.633  0.00  0.00    -0.032 C 
ENDBRANCH  24  27
ENDBRANCH  23  24
ENDBRANCH  22  23
ENDBRANCH  21  22
ENDBRANCH  20  21
ENDBRANCH  19  20
ENDBRANCH   1  19
TORSDOF 14
ENDMDL
MODEL 4
REMARK VINA RESULT:    -6.785     17.887     20.504
REMARK INTER + INTRA:         -13.736
REMARK INTER:                 -10.162
REMARK INTRA:                  -3.574
REMARK UNBOUND:                -1.399
REMARK  Name = cpd199.pdb
REMARK  16 active torsions:
REMARK  status: ('A' for Active; 'I' for Inactive)
REMARK    1  A    between atoms: C_1  and  N_2
REMARK    2  A    between atoms: N_2  and  C_3
REMARK    3  A    between atoms: N_2  and  C_4
REMARK    4  A    between atoms: C_7  and  C_8
REMARK    5  A    between atoms: C_8  and  C_9
REMARK    6  A    between atoms: N_11  and  C_12
REMARK    7  A    between atoms: C_12  and  C_13
REMARK    8  A    between atoms: C_13  and  C_14
REMARK    9  A    between atoms: C_14  and  C_15
REMARK   10  A    between atoms: C_15  and  C_16
REMARK   11  A    between atoms: C_16  and  C_17
REMARK   12  A    between atoms: C_17  and  C_18
REMARK   13  A    between atoms: C_18  and  C_19
REMARK   14  A    between atoms: C_19  and  C_20
REMARK   15  A    between atoms: C_20  and  N_21
REMARK   16  A    between atoms: N_21  and  C_22
REMARK                            x       y       z     vdW  Elec       q    Type
REMARK                         _______ _______ _______ _____ _____    ______ ____
ROOT
ATOM      1  C   UNL     1      42.590 -17.667 -34.302  0.00  0.00    -0.053 C 
ENDROOT
BRANCH   1   2
ATOM      2  C   UNL     1      44.058 -17.589 -34.720  0.00  0.00    -0.052 C 
BRANCH   2   3
ATOM      3  C   UNL     1      44.949 -18.500 -33.875  0.00  0.00    -0.037 C 
BRANCH   3   4
ATOM      4  C   UNL     1      45.621 -19.588 -34.714  0.00  0.00    +0.012 C 
BRANCH   4   7
ATOM      5  C   UNL     1      47.885 -18.667 -35.435  0.00  0.00    +0.217 C 
ATOM      6  O   UNL     1      49.099 -18.716 -35.224  0.00  0.00    -0.275 OA
ATOM      7  N   UNL     1      47.067 -19.469 -34.696  0.00  0.00    -0.315 N 
ATOM      8  H   UNL     1      47.527 -20.057 -34.054  0.00  0.00    +0.000 HD
BRANCH   5   9
ATOM      9  C   UNL     1      47.304 -17.744 -36.494  0.00  0.00    +0.049 C 
BRANCH   9  13
ATOM     10  C   UNL     1      46.370 -19.738 -40.280  0.00  0.00    +0.029 A 
ATOM     11  C   UNL     1      46.137 -18.366 -40.077  0.00  0.00    -0.040 A 
ATOM     12  C   UNL     1      46.441 -17.722 -38.867  0.00  0.00    -0.056 A 
ATOM     13  C   UNL     1      46.995 -18.431 -37.801  0.00  0.00    -0.039 A 
ATOM     14  C   UNL     1      47.294 -19.780 -38.000  0.00  0.00    -0.056 A 
ATOM     15  C   UNL     1      46.983 -20.413 -39.212  0.00  0.00    -0.040 A 
BRANCH  10  17
ATOM     16  C   UNL     1      46.269 -21.820 -41.595  0.00  0.00    +0.000 C 
ATOM     17  N   UNL     1      46.053 -20.378 -41.485  0.00  0.00    -0.336 N 
ATOM     18  C   UNL     1      44.982 -19.836 -42.317  0.00  0.00    +0.000 C 
ENDBRANCH  10  17
ENDBRANCH   9  13
ENDBRANCH   5   9
ENDBRANCH   4   7
ENDBRANCH   3   4
ENDBRANCH   2   3
ENDBRANCH   1   2
BRANCH   1  19
ATOM     19  C   UNL     1      42.318 -18.953 -33.515  0.00  0.00    -0.053 C 
BRANCH  19  20
ATOM     20  C   UNL     1      41.021 -18.868 -32.704  0.00  0.00    -0.053 C 
BRANCH  20  21
ATOM     21  C   UNL     1      40.275 -20.203 -32.581  0.00  0.00    -0.052 C 
BRANCH  21  22
ATOM     22  C   UNL     1      41.019 -21.401 -33.192  0.00  0.00    -0.040 C 
BRANCH  22  23
ATOM     23  C   UNL     1      40.347 -21.984 -34.437  0.00  0.00    -0.004 C 
BRANCH  23  24
ATOM     24  N   UNL     1      41.269 -22.430 -35.484  0.00  0.00    -0.311 N 
ATOM     25  H   UNL     1      40.910 -23.313 -35.845  0.00  0.00    +0.000 HD
ATOM     26  H   UNL     1      42.176 -22.470 -35.018  0.00  0.00    +0.000 HD
BRANCH  24  27
ATOM     27  C   UNL     1      41.498 -21.545 -36.644  0.00  0.00    +0.020 C 
ATOM     28  C   UNL     1      41.409 -22.363 -37.959  0.00  0.00    -0.032 C 
ATOM     29  C   UNL     1      41.762 -21.486 -39.175  0.00  0.00    -0.039 C 
ATOM     30  C   UNL     1      43.202 -20.971 -39.029  0.00  0.00    -0.047 C 
ATOM     31  C   UNL     1      43.329 -20.137 -37.746  0.00  0.00    -0.039 C 
ATOM     32  C   UNL     1      42.367 -18.942 -37.819  0.00  0.00    -0.047 C 
ATOM     33  C   UNL     1      40.923 -19.443 -37.962  0.00  0.00    -0.039 C 
ATOM     34  C   UNL     1      40.799 -20.290 -39.239  0.00  0.00    -0.047 C 
ATOM     35  C   UNL     1      40.563 -20.309 -36.742  0.00  0.00    -0.032 C 
ATOM     36  C   UNL     1      42.961 -21.014 -36.535  0.00  0.00    -0.032 C 
ENDBRANCH  24  27
ENDBRANCH  23  24
ENDBRANCH  22  23
ENDBRANCH  21  22
ENDBRANCH  20  21
ENDBRANCH  19  20
ENDBRANCH   1  19
TORSDOF 14
ENDMDL
MODEL 5
REMARK VINA RESULT:    -6.756     17.917     20.028
REMARK INTER + INTRA:         -13.684
REMARK INTER:                  -9.793
REMARK INTRA:                  -3.891
REMARK UNBOUND:                -1.399
REMARK  Name = cpd199.pdb
REMARK  16 active torsions:
REMARK  status: ('A' for Active; 'I' for Inactive)
REMARK    1  A    between atoms: C_1  and  N_2
REMARK    2  A    between atoms: N_2  and  C_3
REMARK    3  A    between atoms: N_2  and  C_4
REMARK    4  A    between atoms: C_7  and  C_8
REMARK    5  A    between atoms: C_8  and  C_9
REMARK    6  A    between atoms: N_11  and  C_12
REMARK    7  A    between atoms: C_12  and  C_13
REMARK    8  A    between atoms: C_13  and  C_14
REMARK    9  A    between atoms: C_14  and  C_15
REMARK   10  A    between atoms: C_15  and  C_16
REMARK   11  A    between atoms: C_16  and  C_17
REMARK   12  A    between atoms: C_17  and  C_18
REMARK   13  A    between atoms: C_18  and  C_19
REMARK   14  A    between atoms: C_19  and  C_20
REMARK   15  A    between atoms: C_20  and  N_21
REMARK   16  A    between atoms: N_21  and  C_22
REMARK                            x       y       z     vdW  Elec       q    Type
REMARK                         _______ _______ _______ _____ _____    ______ ____
ROOT
ATOM      1  C   UNL     1      42.926 -18.735 -37.386  0.00  0.00    -0.053 C 
ENDROOT
BRANCH   1   2
ATOM      2  C   UNL     1      43.371 -17.929 -36.166  0.00  0.00    -0.052 C 
BRANCH   2   3
ATOM      3  C   UNL     1      44.221 -18.758 -35.204  0.00  0.00    -0.037 C 
BRANCH   3   4
ATOM      4  C   UNL     1      45.039 -17.880 -34.255  0.00  0.00    +0.012 C 
BRANCH   4   7
ATOM      5  C   UNL     1      47.465 -18.096 -35.005  0.00  0.00    +0.217 C 
ATOM      6  O   UNL     1      48.569 -18.552 -34.702  0.00  0.00    -0.275 OA
ATOM      7  N   UNL     1      46.418 -18.322 -34.162  0.00  0.00    -0.315 N 
ATOM      8  H   UNL     1      46.629 -18.868 -33.370  0.00  0.00    +0.000 HD
BRANCH   5   9
ATOM      9  C   UNL     1      47.261 -17.304 -36.288  0.00  0.00    +0.049 C 
BRANCH   9  13
ATOM     10  C   UNL     1      46.327 -19.783 -39.775  0.00  0.00    +0.029 A 
ATOM     11  C   UNL     1      46.155 -18.387 -39.779  0.00  0.00    -0.040 A 
ATOM     12  C   UNL     1      46.460 -17.588 -38.665  0.00  0.00    -0.056 A 
ATOM     13  C   UNL     1      46.952 -18.159 -37.491  0.00  0.00    -0.039 A 
ATOM     14  C   UNL     1      47.191 -19.535 -37.484  0.00  0.00    -0.056 A 
ATOM     15  C   UNL     1      46.880 -20.323 -38.602  0.00  0.00    -0.040 A 
BRANCH  10  17
ATOM     16  C   UNL     1      46.207 -22.023 -40.797  0.00  0.00    +0.000 C 
ATOM     17  N   UNL     1      46.010 -20.577 -40.884  0.00  0.00    -0.336 N 
ATOM     18  C   UNL     1      44.953 -20.138 -41.792  0.00  0.00    +0.000 C 
ENDBRANCH  10  17
ENDBRANCH   9  13
ENDBRANCH   5   9
ENDBRANCH   4   7
ENDBRANCH   3   4
ENDBRANCH   2   3
ENDBRANCH   1   2
BRANCH   1  19
ATOM     19  C   UNL     1      43.294 -20.214 -37.222  0.00  0.00    -0.053 C 
BRANCH  19  20
ATOM     20  C   UNL     1      43.022 -21.019 -38.497  0.00  0.00    -0.053 C 
BRANCH  20  21
ATOM     21  C   UNL     1      41.758 -21.885 -38.428  0.00  0.00    -0.052 C 
BRANCH  21  22
ATOM     22  C   UNL     1      40.483 -21.185 -38.924  0.00  0.00    -0.040 C 
BRANCH  22  23
ATOM     23  C   UNL     1      39.589 -20.651 -37.803  0.00  0.00    -0.004 C 
BRANCH  23  24
ATOM     24  N   UNL     1      39.329 -21.599 -36.717  0.00  0.00    -0.311 N 
ATOM     25  H   UNL     1      39.848 -22.450 -36.929  0.00  0.00    +0.000 HD
ATOM     26  H   UNL     1      38.313 -21.685 -36.698  0.00  0.00    +0.000 HD
BRANCH  24  27
ATOM     27  C   UNL     1      39.684 -21.204 -35.339  0.00  0.00    +0.020 C 
ATOM     28  C   UNL     1      38.509 -21.524 -34.378  0.00  0.00    -0.032 C 
ATOM     29  C   UNL     1      38.808 -21.012 -32.956  0.00  0.00    -0.039 C 
ATOM     30  C   UNL     1      38.993 -19.487 -32.995  0.00  0.00    -0.047 C 
ATOM     31  C   UNL     1      40.163 -19.127 -33.922  0.00  0.00    -0.039 C 
ATOM     32  C   UNL     1      41.448 -19.782 -33.397  0.00  0.00    -0.047 C 
ATOM     33  C   UNL     1      41.279 -21.307 -33.356  0.00  0.00    -0.039 C 
ATOM     34  C   UNL     1      40.099 -21.667 -32.439  0.00  0.00    -0.047 C 
ATOM     35  C   UNL     1      40.992 -21.823 -34.777  0.00  0.00    -0.032 C 
ATOM     36  C   UNL     1      39.865 -19.654 -35.337  0.00  0.00    -0.032 C 
ENDBRANCH  24  27
ENDBRANCH  23  24
ENDBRANCH  22  23
ENDBRANCH  21  22
ENDBRANCH  20  21
ENDBRANCH  19  20
ENDBRANCH   1  19
TORSDOF 14
ENDMDL
MODEL 6
REMARK VINA RESULT:    -6.666     17.069     19.995
REMARK INTER + INTRA:         -13.520
REMARK INTER:                 -10.745
REMARK INTRA:                  -2.775
REMARK UNBOUND:                -1.399
REMARK  Name = cpd199.pdb
REMARK  16 active torsions:
REMARK  status: ('A' for Active; 'I' for Inactive)
REMARK    1  A    between atoms: C_1  and  N_2
REMARK    2  A    between atoms: N_2  and  C_3
REMARK    3  A    between atoms: N_2  and  C_4
REMARK    4  A    between atoms: C_7  and  C_8
REMARK    5  A    between atoms: C_8  and  C_9
REMARK    6  A    between atoms: N_11  and  C_12
REMARK    7  A    between atoms: C_12  and  C_13
REMARK    8  A    between atoms: C_13  and  C_14
REMARK    9  A    between atoms: C_14  and  C_15
REMARK   10  A    between atoms: C_15  and  C_16
REMARK   11  A    between atoms: C_16  and  C_17
REMARK   12  A    between atoms: C_17  and  C_18
REMARK   13  A    between atoms: C_18  and  C_19
REMARK   14  A    between atoms: C_19  and  C_20
REMARK   15  A    between atoms: C_20  and  N_21
REMARK   16  A    between atoms: N_21  and  C_22
REMARK                            x       y       z     vdW  Elec       q    Type
REMARK                         _______ _______ _______ _____ _____    ______ ____
ROOT
ATOM      1  C   UNL     1      42.068 -20.154 -39.092  0.00  0.00    -0.053 C 
ENDROOT
BRANCH   1   2
ATOM      2  C   UNL     1      43.178 -20.695 -39.994  0.00  0.00    -0.052 C 
BRANCH   2   3
ATOM      3  C   UNL     1      43.627 -19.671 -41.036  0.00  0.00    -0.037 C 
BRANCH   3   4
ATOM      4  C   UNL     1      44.133 -20.336 -42.317  0.00  0.00    +0.012 C 
BRANCH   4   7
ATOM      5  C   UNL     1      46.062 -21.916 -41.785  0.00  0.00    +0.217 C 
ATOM      6  O   UNL     1      46.359 -23.090 -41.557  0.00  0.00    -0.275 OA
ATOM      7  N   UNL     1      44.757 -21.619 -42.050  0.00  0.00    -0.315 N 
ATOM      8  H   UNL     1      44.147 -22.392 -42.062  0.00  0.00    +0.000 HD
BRANCH   5   9
ATOM      9  C   UNL     1      47.113 -20.818 -41.780  0.00  0.00    +0.049 C 
BRANCH   9  13
ATOM     10  C   UNL     1      47.115 -18.332 -38.175  0.00  0.00    +0.029 A 
ATOM     11  C   UNL     1      46.949 -17.788 -39.460  0.00  0.00    -0.040 A 
ATOM     12  C   UNL     1      46.941 -18.583 -40.618  0.00  0.00    -0.056 A 
ATOM     13  C   UNL     1      47.102 -19.966 -40.535  0.00  0.00    -0.039 A 
ATOM     14  C   UNL     1      47.206 -20.536 -39.265  0.00  0.00    -0.056 A 
ATOM     15  C   UNL     1      47.215 -19.732 -38.116  0.00  0.00    -0.040 A 
BRANCH  10  17
ATOM     16  C   UNL     1      46.102 -16.513 -36.855  0.00  0.00    +0.000 C 
ATOM     17  N   UNL     1      47.135 -17.534 -37.024  0.00  0.00    -0.336 N 
ATOM     18  C   UNL     1      47.685 -18.084 -35.787  0.00  0.00    +0.000 C 
ENDBRANCH  10  17
ENDBRANCH   9  13
ENDBRANCH   5   9
ENDBRANCH   4   7
ENDBRANCH   3   4
ENDBRANCH   2   3
ENDBRANCH   1   2
BRANCH   1  19
ATOM     19  C   UNL     1      42.426 -20.348 -37.615  0.00  0.00    -0.053 C 
BRANCH  19  20
ATOM     20  C   UNL     1      43.788 -19.736 -37.268  0.00  0.00    -0.053 C 
BRANCH  20  21
ATOM     21  C   UNL     1      44.323 -20.150 -35.891  0.00  0.00    -0.052 C 
BRANCH  21  22
ATOM     22  C   UNL     1      44.000 -19.159 -34.762  0.00  0.00    -0.040 C 
BRANCH  22  23
ATOM     23  C   UNL     1      43.256 -19.781 -33.579  0.00  0.00    -0.004 C 
BRANCH  23  24
ATOM     24  N   UNL     1      42.693 -21.109 -33.834  0.00  0.00    -0.311 N 
ATOM     25  H   UNL     1      42.978 -21.710 -33.061  0.00  0.00    +0.000 HD
ATOM     26  H   UNL     1      43.053 -21.361 -34.755  0.00  0.00    +0.000 HD
BRANCH  24  27
ATOM     27  C   UNL     1      41.228 -21.239 -33.970  0.00  0.00    +0.020 C 
ATOM     28  C   UNL     1      40.623 -21.799 -32.656  0.00  0.00    -0.032 C 
ATOM     29  C   UNL     1      39.112 -22.055 -32.814  0.00  0.00    -0.039 C 
ATOM     30  C   UNL     1      38.887 -23.091 -33.926  0.00  0.00    -0.047 C 
ATOM     31  C   UNL     1      39.456 -22.566 -35.252  0.00  0.00    -0.039 C 
ATOM     32  C   UNL     1      38.746 -21.257 -35.626  0.00  0.00    -0.047 C 
ATOM     33  C   UNL     1      38.965 -20.210 -34.525  0.00  0.00    -0.039 C 
ATOM     34  C   UNL     1      38.409 -20.743 -33.195  0.00  0.00    -0.047 C 
ATOM     35  C   UNL     1      40.473 -19.943 -34.373  0.00  0.00    -0.032 C 
ATOM     36  C   UNL     1      40.962 -22.298 -35.084  0.00  0.00    -0.032 C 
ENDBRANCH  24  27
ENDBRANCH  23  24
ENDBRANCH  22  23
ENDBRANCH  21  22
ENDBRANCH  20  21
ENDBRANCH  19  20
ENDBRANCH   1  19
TORSDOF 14
ENDMDL
MODEL 7
REMARK VINA RESULT:    -6.597     18.884     22.335
REMARK INTER + INTRA:         -13.395
REMARK INTER:                  -9.496
REMARK INTRA:                  -3.898
REMARK UNBOUND:                -1.399
REMARK  Name = cpd199.pdb
REMARK  16 active torsions:
REMARK  status: ('A' for Active; 'I' for Inactive)
REMARK    1  A    between atoms: C_1  and  N_2
REMARK    2  A    between atoms: N_2  and  C_3
REMARK    3  A    between atoms: N_2  and  C_4
REMARK    4  A    between atoms: C_7  and  C_8
REMARK    5  A    between atoms: C_8  and  C_9
REMARK    6  A    between atoms: N_11  and  C_12
REMARK    7  A    between atoms: C_12  and  C_13
REMARK    8  A    between atoms: C_13  and  C_14
REMARK    9  A    between atoms: C_14  and  C_15
REMARK   10  A    between atoms: C_15  and  C_16
REMARK   11  A    between atoms: C_16  and  C_17
REMARK   12  A    between atoms: C_17  and  C_18
REMARK   13  A    between atoms: C_18  and  C_19
REMARK   14  A    between atoms: C_19  and  C_20
REMARK   15  A    between atoms: C_20  and  N_21
REMARK   16  A    between atoms: N_21  and  C_22
REMARK                            x       y       z     vdW  Elec       q    Type
REMARK                         _______ _______ _______ _____ _____    ______ ____
ROOT
ATOM      1  C   UNL     1      46.036 -17.816 -37.854  0.00  0.00    -0.053 C 
ENDROOT
BRANCH   1   2
ATOM      2  C   UNL     1      47.255 -18.518 -37.257  0.00  0.00    -0.052 C 
BRANCH   2   3
ATOM      3  C   UNL     1      46.942 -19.182 -35.917  0.00  0.00    -0.037 C 
BRANCH   3   4
ATOM      4  C   UNL     1      46.927 -18.177 -34.765  0.00  0.00    +0.012 C 
BRANCH   4   7
ATOM      5  C   UNL     1      44.635 -18.349 -33.663  0.00  0.00    +0.217 C 
ATOM      6  O   UNL     1      44.024 -18.790 -32.687  0.00  0.00    -0.275 OA
ATOM      7  N   UNL     1      45.981 -18.553 -33.730  0.00  0.00    -0.315 N 
ATOM      8  H   UNL     1      46.371 -19.026 -32.959  0.00  0.00    +0.000 HD
BRANCH   5   9
ATOM      9  C   UNL     1      43.917 -17.591 -34.768  0.00  0.00    +0.049 C 
BRANCH   9  13
ATOM     10  C   UNL     1      41.503 -20.139 -37.387  0.00  0.00    +0.029 A 
ATOM     11  C   UNL     1      41.329 -18.745 -37.330  0.00  0.00    -0.040 A 
ATOM     12  C   UNL     1      42.106 -17.924 -36.496  0.00  0.00    -0.056 A 
ATOM     13  C   UNL     1      43.095 -18.470 -35.679  0.00  0.00    -0.039 A 
ATOM     14  C   UNL     1      43.329 -19.844 -35.765  0.00  0.00    -0.056 A 
ATOM     15  C   UNL     1      42.545 -20.654 -36.599  0.00  0.00    -0.040 A 
BRANCH  10  17
ATOM     16  C   UNL     1      40.063 -20.361 -39.376  0.00  0.00    +0.000 C 
ATOM     17  N   UNL     1      40.717 -20.955 -38.211  0.00  0.00    -0.336 N 
ATOM     18  C   UNL     1      41.047 -22.373 -38.329  0.00  0.00    +0.000 C 
ENDBRANCH  10  17
ENDBRANCH   9  13
ENDBRANCH   5   9
ENDBRANCH   4   7
ENDBRANCH   3   4
ENDBRANCH   2   3
ENDBRANCH   1   2
BRANCH   1  19
ATOM     19  C   UNL     1      46.052 -16.321 -37.519  0.00  0.00    -0.053 C 
BRANCH  19  20
ATOM     20  C   UNL     1      46.845 -15.510 -38.550  0.00  0.00    -0.053 C 
BRANCH  20  21
ATOM     21  C   UNL     1      46.566 -15.911 -40.004  0.00  0.00    -0.052 C 
BRANCH  21  22
ATOM     22  C   UNL     1      45.234 -15.386 -40.562  0.00  0.00    -0.040 C 
BRANCH  22  23
ATOM     23  C   UNL     1      44.157 -16.461 -40.719  0.00  0.00    -0.004 C 
BRANCH  23  24
ATOM     24  N   UNL     1      44.342 -17.358 -41.863  0.00  0.00    -0.311 N 
ATOM     25  H   UNL     1      45.130 -17.000 -42.402  0.00  0.00    +0.000 HD
ATOM     26  H   UNL     1      43.437 -17.352 -42.334  0.00  0.00    +0.000 HD
BRANCH  24  27
ATOM     27  C   UNL     1      44.605 -18.787 -41.602  0.00  0.00    +0.020 C 
ATOM     28  C   UNL     1      44.132 -19.641 -42.807  0.00  0.00    -0.032 C 
ATOM     29  C   UNL     1      44.286 -21.144 -42.509  0.00  0.00    -0.039 C 
ATOM     30  C   UNL     1      43.421 -21.511 -41.293  0.00  0.00    -0.047 C 
ATOM     31  C   UNL     1      43.870 -20.700 -40.069  0.00  0.00    -0.039 C 
ATOM     32  C   UNL     1      45.340 -21.018 -39.760  0.00  0.00    -0.047 C 
ATOM     33  C   UNL     1      46.218 -20.653 -40.966  0.00  0.00    -0.039 C 
ATOM     34  C   UNL     1      45.758 -21.454 -42.195  0.00  0.00    -0.047 C 
ATOM     35  C   UNL     1      46.075 -19.149 -41.259  0.00  0.00    -0.032 C 
ATOM     36  C   UNL     1      43.728 -19.199 -40.379  0.00  0.00    -0.032 C 
ENDBRANCH  24  27
ENDBRANCH  23  24
ENDBRANCH  22  23
ENDBRANCH  21  22
ENDBRANCH  20  21
ENDBRANCH  19  20
ENDBRANCH   1  19
TORSDOF 14
ENDMDL
MODEL 8
REMARK VINA RESULT:    -6.592     18.124     21.576
REMARK INTER + INTRA:         -13.387
REMARK INTER:                  -9.586
REMARK INTRA:                  -3.801
REMARK UNBOUND:                -1.399
REMARK  Name = cpd199.pdb
REMARK  16 active torsions:
REMARK  status: ('A' for Active; 'I' for Inactive)
REMARK    1  A    between atoms: C_1  and  N_2
REMARK    2  A    between atoms: N_2  and  C_3
REMARK    3  A    between atoms: N_2  and  C_4
REMARK    4  A    between atoms: C_7  and  C_8
REMARK    5  A    between atoms: C_8  and  C_9
REMARK    6  A    between atoms: N_11  and  C_12
REMARK    7  A    between atoms: C_12  and  C_13
REMARK    8  A    between atoms: C_13  and  C_14
REMARK    9  A    between atoms: C_14  and  C_15
REMARK   10  A    between atoms: C_15  and  C_16
REMARK   11  A    between atoms: C_16  and  C_17
REMARK   12  A    between atoms: C_17  and  C_18
REMARK   13  A    between atoms: C_18  and  C_19
REMARK   14  A    between atoms: C_19  and  C_20
REMARK   15  A    between atoms: C_20  and  N_21
REMARK   16  A    between atoms: N_21  and  C_22
REMARK                            x       y       z     vdW  Elec       q    Type
REMARK                         _______ _______ _______ _____ _____    ______ ____
ROOT
ATOM      1  C   UNL     1      47.278 -19.019 -36.675  0.00  0.00    -0.053 C 
ENDROOT
BRANCH   1   2
ATOM      2  C   UNL     1      47.275 -19.513 -38.122  0.00  0.00    -0.052 C 
BRANCH   2   3
ATOM      3  C   UNL     1      46.587 -20.870 -38.268  0.00  0.00    -0.037 C 
BRANCH   3   4
ATOM      4  C   UNL     1      46.842 -21.501 -39.637  0.00  0.00    +0.012 C 
BRANCH   4   7
ATOM      5  C   UNL     1      44.926 -21.040 -41.254  0.00  0.00    +0.217 C 
ATOM      6  O   UNL     1      43.897 -21.509 -41.746  0.00  0.00    -0.275 OA
ATOM      7  N   UNL     1      45.604 -21.790 -40.339  0.00  0.00    -0.315 N 
ATOM      8  H   UNL     1      45.192 -22.657 -40.121  0.00  0.00    +0.000 HD
BRANCH   5   9
ATOM      9  C   UNL     1      45.433 -19.661 -41.645  0.00  0.00    +0.049 C 
BRANCH   9  13
ATOM     10  C   UNL     1      43.109 -16.343 -39.982  0.00  0.00    +0.029 A 
ATOM     11  C   UNL     1      43.290 -16.512 -41.366  0.00  0.00    -0.040 A 
ATOM     12  C   UNL     1      44.029 -17.579 -41.903  0.00  0.00    -0.056 A 
ATOM     13  C   UNL     1      44.622 -18.526 -41.069  0.00  0.00    -0.039 A 
ATOM     14  C   UNL     1      44.403 -18.415 -39.695  0.00  0.00    -0.056 A 
ATOM     15  C   UNL     1      43.666 -17.344 -39.170  0.00  0.00    -0.040 A 
BRANCH  10  17
ATOM     16  C   UNL     1      42.962 -14.499 -38.353  0.00  0.00    +0.000 C 
ATOM     17  N   UNL     1      42.381 -15.270 -39.451  0.00  0.00    -0.336 N 
ATOM     18  C   UNL     1      41.461 -14.538 -40.317  0.00  0.00    +0.000 C 
ENDBRANCH  10  17
ENDBRANCH   9  13
ENDBRANCH   5   9
ENDBRANCH   4   7
ENDBRANCH   3   4
ENDBRANCH   2   3
ENDBRANCH   1   2
BRANCH   1  19
ATOM     19  C   UNL     1      46.516 -17.696 -36.553  0.00  0.00    -0.053 C 
BRANCH  19  20
ATOM     20  C   UNL     1      45.191 -17.862 -35.802  0.00  0.00    -0.053 C 
BRANCH  20  21
ATOM     21  C   UNL     1      44.949 -19.283 -35.275  0.00  0.00    -0.052 C 
BRANCH  21  22
ATOM     22  C   UNL     1      44.031 -19.354 -34.044  0.00  0.00    -0.040 C 
BRANCH  22  23
ATOM     23  C   UNL     1      42.645 -19.933 -34.333  0.00  0.00    -0.004 C 
BRANCH  23  24
ATOM     24  N   UNL     1      42.643 -21.157 -35.138  0.00  0.00    -0.311 N 
ATOM     25  H   UNL     1      42.227 -21.892 -34.567  0.00  0.00    +0.000 HD
ATOM     26  H   UNL     1      43.621 -21.288 -35.396  0.00  0.00    +0.000 HD
BRANCH  24  27
ATOM     27  C   UNL     1      41.927 -21.149 -36.430  0.00  0.00    +0.020 C 
ATOM     28  C   UNL     1      40.908 -19.980 -36.462  0.00  0.00    -0.032 C 
ATOM     29  C   UNL     1      40.065 -20.023 -37.751  0.00  0.00    -0.039 C 
ATOM     30  C   UNL     1      39.281 -21.343 -37.800  0.00  0.00    -0.047 C 
ATOM     31  C   UNL     1      40.256 -22.530 -37.790  0.00  0.00    -0.039 C 
ATOM     32  C   UNL     1      41.178 -22.440 -39.015  0.00  0.00    -0.047 C 
ATOM     33  C   UNL     1      41.971 -21.125 -38.976  0.00  0.00    -0.039 C 
ATOM     34  C   UNL     1      40.994 -19.938 -38.971  0.00  0.00    -0.047 C 
ATOM     35  C   UNL     1      42.823 -21.085 -37.696  0.00  0.00    -0.032 C 
ATOM     36  C   UNL     1      41.106 -22.473 -36.508  0.00  0.00    -0.032 C 
ENDBRANCH  24  27
ENDBRANCH  23  24
ENDBRANCH  22  23
ENDBRANCH  21  22
ENDBRANCH  20  21
ENDBRANCH  19  20
ENDBRANCH   1  19
TORSDOF 14
ENDMDL
MODEL 9
REMARK VINA RESULT:    -6.573     17.046     21.026
REMARK INTER + INTRA:         -13.351
REMARK INTER:                 -10.702
REMARK INTRA:                  -2.650
REMARK UNBOUND:                -1.399
REMARK  Name = cpd199.pdb
REMARK  16 active torsions:
REMARK  status: ('A' for Active; 'I' for Inactive)
REMARK    1  A    between atoms: C_1  and  N_2
REMARK    2  A    between atoms: N_2  and  C_3
REMARK    3  A    between atoms: N_2  and  C_4
REMARK    4  A    between atoms: C_7  and  C_8
REMARK    5  A    between atoms: C_8  and  C_9
REMARK    6  A    between atoms: N_11  and  C_12
REMARK    7  A    between atoms: C_12  and  C_13
REMARK    8  A    between atoms: C_13  and  C_14
REMARK    9  A    between atoms: C_14  and  C_15
REMARK   10  A    between atoms: C_15  and  C_16
REMARK   11  A    between atoms: C_16  and  C_17
REMARK   12  A    between atoms: C_17  and  C_18
REMARK   13  A    between atoms: C_18  and  C_19
REMARK   14  A    between atoms: C_19  and  C_20
REMARK   15  A    between atoms: C_20  and  N_21
REMARK   16  A    between atoms: N_21  and  C_22
REMARK                            x       y       z     vdW  Elec       q    Type
REMARK                         _______ _______ _______ _____ _____    ______ ____
ROOT
ATOM      1  C   UNL     1      39.839 -18.527 -36.678  0.00  0.00    -0.053 C 
ENDROOT
BRANCH   1   2
ATOM      2  C   UNL     1      41.326 -18.800 -36.452  0.00  0.00    -0.052 C 
BRANCH   2   3
ATOM      3  C   UNL     1      42.177 -17.542 -36.620  0.00  0.00    -0.037 C 
BRANCH   3   4
ATOM      4  C   UNL     1      42.916 -17.170 -35.334  0.00  0.00    +0.012 C 
BRANCH   4   7
ATOM      5  C   UNL     1      44.234 -18.865 -33.961  0.00  0.00    +0.217 C 
ATOM      6  O   UNL     1      45.229 -19.594 -33.958  0.00  0.00    -0.275 OA
ATOM      7  N   UNL     1      44.009 -18.083 -35.055  0.00  0.00    -0.315 N 
ATOM      8  H   UNL     1      44.692 -18.147 -35.762  0.00  0.00    +0.000 HD
BRANCH   5   9
ATOM      9  C   UNL     1      43.278 -18.826 -32.779  0.00  0.00    +0.049 C 
BRANCH   9  13
ATOM     10  C   UNL     1      39.552 -21.043 -33.395  0.00  0.00    +0.029 A 
ATOM     11  C   UNL     1      39.567 -19.711 -32.947  0.00  0.00    -0.040 A 
ATOM     12  C   UNL     1      40.759 -18.994 -32.755  0.00  0.00    -0.056 A 
ATOM     13  C   UNL     1      41.996 -19.589 -33.004  0.00  0.00    -0.039 A 
ATOM     14  C   UNL     1      42.005 -20.890 -33.510  0.00  0.00    -0.056 A 
ATOM     15  C   UNL     1      40.808 -21.596 -33.696  0.00  0.00    -0.040 A 
BRANCH  10  17
ATOM     16  C   UNL     1      38.433 -23.178 -33.912  0.00  0.00    +0.000 C 
ATOM     17  N   UNL     1      38.361 -21.757 -33.573  0.00  0.00    -0.336 N 
ATOM     18  C   UNL     1      37.169 -21.346 -32.835  0.00  0.00    +0.000 C 
ENDBRANCH  10  17
ENDBRANCH   9  13
ENDBRANCH   5   9
ENDBRANCH   4   7
ENDBRANCH   3   4
ENDBRANCH   2   3
ENDBRANCH   1   2
BRANCH   1  19
ATOM     19  C   UNL     1      39.058 -19.840 -36.794  0.00  0.00    -0.053 C 
BRANCH  19  20
ATOM     20  C   UNL     1      39.477 -20.653 -38.023  0.00  0.00    -0.053 C 
BRANCH  20  21
ATOM     21  C   UNL     1      40.235 -21.943 -37.686  0.00  0.00    -0.052 C 
BRANCH  21  22
ATOM     22  C   UNL     1      40.826 -22.668 -38.905  0.00  0.00    -0.040 C 
BRANCH  22  23
ATOM     23  C   UNL     1      41.543 -21.745 -39.891  0.00  0.00    -0.004 C 
BRANCH  23  24
ATOM     24  N   UNL     1      42.820 -21.207 -39.416  0.00  0.00    -0.311 N 
ATOM     25  H   UNL     1      43.169 -21.846 -38.703  0.00  0.00    +0.000 HD
ATOM     26  H   UNL     1      42.592 -20.264 -39.100  0.00  0.00    +0.000 HD
BRANCH  24  27
ATOM     27  C   UNL     1      43.908 -21.008 -40.394  0.00  0.00    +0.020 C 
ATOM     28  C   UNL     1      43.461 -21.509 -41.792  0.00  0.00    -0.032 C 
ATOM     29  C   UNL     1      44.620 -21.423 -42.803  0.00  0.00    -0.039 C 
ATOM     30  C   UNL     1      45.779 -22.311 -42.323  0.00  0.00    -0.047 C 
ATOM     31  C   UNL     1      46.266 -21.835 -40.947  0.00  0.00    -0.039 C 
ATOM     32  C   UNL     1      46.751 -20.382 -41.055  0.00  0.00    -0.047 C 
ATOM     33  C   UNL     1      45.602 -19.481 -41.530  0.00  0.00    -0.039 C 
ATOM     34  C   UNL     1      45.104 -19.968 -42.901  0.00  0.00    -0.047 C 
ATOM     35  C   UNL     1      44.447 -19.557 -40.516  0.00  0.00    -0.032 C 
ATOM     36  C   UNL     1      45.100 -21.909 -39.946  0.00  0.00    -0.032 C 
ENDBRANCH  24  27
ENDBRANCH  23  24
ENDBRANCH  22  23
ENDBRANCH  21  22
ENDBRANCH  20  21
ENDBRANCH  19  20
ENDBRANCH   1  19
TORSDOF 14
ENDMDL
MODEL 10
REMARK VINA RESULT:    -6.491     17.244     21.203
REMARK INTER + INTRA:         -13.203
REMARK INTER:                  -9.979
REMARK INTRA:                  -3.224
REMARK UNBOUND:                -1.399
REMARK  Name = cpd199.pdb
REMARK  16 active torsions:
REMARK  status: ('A' for Active; 'I' for Inactive)
REMARK    1  A    between atoms: C_1  and  N_2
REMARK    2  A    between atoms: N_2  and  C_3
REMARK    3  A    between atoms: N_2  and  C_4
REMARK    4  A    between atoms: C_7  and  C_8
REMARK    5  A    between atoms: C_8  and  C_9
REMARK    6  A    between atoms: N_11  and  C_12
REMARK    7  A    between atoms: C_12  and  C_13
REMARK    8  A    between atoms: C_13  and  C_14
REMARK    9  A    between atoms: C_14  and  C_15
REMARK   10  A    between atoms: C_15  and  C_16
REMARK   11  A    between atoms: C_16  and  C_17
REMARK   12  A    between atoms: C_17  and  C_18
REMARK   13  A    between atoms: C_18  and  C_19
REMARK   14  A    between atoms: C_19  and  C_20
REMARK   15  A    between atoms: C_20  and  N_21
REMARK   16  A    between atoms: N_21  and  C_22
REMARK                            x       y       z     vdW  Elec       q    Type
REMARK                         _______ _______ _______ _____ _____    ______ ____
ROOT
ATOM      1  C   UNL     1      42.249 -19.784 -36.566  0.00  0.00    -0.053 C 
ENDROOT
BRANCH   1   2
ATOM      2  C   UNL     1      41.583 -21.045 -37.116  0.00  0.00    -0.052 C 
BRANCH   2   3
ATOM      3  C   UNL     1      41.294 -22.071 -36.020  0.00  0.00    -0.037 C 
BRANCH   3   4
ATOM      4  C   UNL     1      39.840 -22.546 -36.045  0.00  0.00    +0.012 C 
BRANCH   4   7
ATOM      5  C   UNL     1      38.639 -22.512 -33.798  0.00  0.00    +0.217 C 
ATOM      6  O   UNL     1      38.389 -23.172 -32.786  0.00  0.00    -0.275 OA
ATOM      7  N   UNL     1      39.422 -23.076 -34.761  0.00  0.00    -0.315 N 
ATOM      8  H   UNL     1      39.754 -23.980 -34.553  0.00  0.00    +0.000 HD
BRANCH   5   9
ATOM      9  C   UNL     1      38.098 -21.102 -33.976  0.00  0.00    +0.049 C 
BRANCH   9  13
ATOM     10  C   UNL     1      41.073 -17.953 -33.333  0.00  0.00    +0.029 A 
ATOM     11  C   UNL     1      41.049 -19.130 -32.565  0.00  0.00    -0.040 A 
ATOM     12  C   UNL     1      40.101 -20.145 -32.772  0.00  0.00    -0.056 A 
ATOM     13  C   UNL     1      39.129 -20.021 -33.765  0.00  0.00    -0.039 A 
ATOM     14  C   UNL     1      39.172 -18.890 -34.583  0.00  0.00    -0.056 A 
ATOM     15  C   UNL     1      40.122 -17.882 -34.364  0.00  0.00    -0.040 A 
BRANCH  10  17
ATOM     16  C   UNL     1      41.545 -15.627 -32.667  0.00  0.00    +0.000 C 
ATOM     17  N   UNL     1      42.013 -16.938 -33.114  0.00  0.00    -0.336 N 
ATOM     18  C   UNL     1      43.365 -17.301 -32.695  0.00  0.00    +0.000 C 
ENDBRANCH  10  17
ENDBRANCH   9  13
ENDBRANCH   5   9
ENDBRANCH   4   7
ENDBRANCH   3   4
ENDBRANCH   2   3
ENDBRANCH   1   2
BRANCH   1  19
ATOM     19  C   UNL     1      43.234 -20.136 -35.446  0.00  0.00    -0.053 C 
BRANCH  19  20
ATOM     20  C   UNL     1      44.688 -20.108 -35.929  0.00  0.00    -0.053 C 
BRANCH  20  21
ATOM     21  C   UNL     1      45.335 -18.718 -35.872  0.00  0.00    -0.052 C 
BRANCH  21  22
ATOM     22  C   UNL     1      46.869 -18.729 -35.966  0.00  0.00    -0.040 C 
BRANCH  22  23
ATOM     23  C   UNL     1      47.409 -19.299 -37.280  0.00  0.00    -0.004 C 
BRANCH  23  24
ATOM     24  N   UNL     1      46.848 -18.695 -38.491  0.00  0.00    -0.311 N 
ATOM     25  H   UNL     1      47.616 -18.243 -38.985  0.00  0.00    +0.000 HD
ATOM     26  H   UNL     1      46.112 -18.079 -38.145  0.00  0.00    +0.000 HD
BRANCH  24  27
ATOM     27  C   UNL     1      46.160 -19.571 -39.461  0.00  0.00    +0.020 C 
ATOM     28  C   UNL     1      46.714 -19.319 -40.887  0.00  0.00    -0.032 C 
ATOM     29  C   UNL     1      45.929 -20.134 -41.932  0.00  0.00    -0.039 C 
ATOM     30  C   UNL     1      44.454 -19.705 -41.908  0.00  0.00    -0.047 C 
ATOM     31  C   UNL     1      43.860 -19.958 -40.514  0.00  0.00    -0.039 C 
ATOM     32  C   UNL     1      43.959 -21.454 -40.184  0.00  0.00    -0.047 C 
ATOM     33  C   UNL     1      45.430 -21.896 -40.201  0.00  0.00    -0.039 C 
ATOM     34  C   UNL     1      46.028 -21.629 -41.592  0.00  0.00    -0.047 C 
ATOM     35  C   UNL     1      46.213 -21.092 -39.150  0.00  0.00    -0.032 C 
ATOM     36  C   UNL     1      44.657 -19.152 -39.473  0.00  0.00    -0.032 C 
ENDBRANCH  24  27
ENDBRANCH  23  24
ENDBRANCH  22  23
ENDBRANCH  21  22
ENDBRANCH  20  21
ENDBRANCH  19  20
ENDBRANCH   1  19
TORSDOF 14
ENDMDL
MODEL 11
REMARK VINA RESULT:    -6.455     16.720     21.231
REMARK INTER + INTRA:         -13.136
REMARK INTER:                 -10.464
REMARK INTRA:                  -2.672
REMARK UNBOUND:                -1.399
REMARK  Name = cpd199.pdb
REMARK  16 active torsions:
REMARK  status: ('A' for Active; 'I' for Inactive)
REMARK    1  A    between atoms: C_1  and  N_2
REMARK    2  A    between atoms: N_2  and  C_3
REMARK    3  A    between atoms: N_2  and  C_4
REMARK    4  A    between atoms: C_7  and  C_8
REMARK    5  A    between atoms: C_8  and  C_9
REMARK    6  A    between atoms: N_11  and  C_12
REMARK    7  A    between atoms: C_12  and  C_13
REMARK    8  A    between atoms: C_13  and  C_14
REMARK    9  A    between atoms: C_14  and  C_15
REMARK   10  A    between atoms: C_15  and  C_16
REMARK   11  A    between atoms: C_16  and  C_17
REMARK   12  A    between atoms: C_17  and  C_18
REMARK   13  A    between atoms: C_18  and  C_19
REMARK   14  A    between atoms: C_19  and  C_20
REMARK   15  A    between atoms: C_20  and  N_21
REMARK   16  A    between atoms: N_21  and  C_22
REMARK                            x       y       z     vdW  Elec       q    Type
REMARK                         _______ _______ _______ _____ _____    ______ ____
ROOT
ATOM      1  C   UNL     1      41.972 -20.177 -36.635  0.00  0.00    -0.053 C 
ENDROOT
BRANCH   1   2
ATOM      2  C   UNL     1      41.285 -21.207 -37.531  0.00  0.00    -0.052 C 
BRANCH   2   3
ATOM      3  C   UNL     1      40.783 -22.416 -36.742  0.00  0.00    -0.037 C 
BRANCH   3   4
ATOM      4  C   UNL     1      39.495 -22.110 -35.976  0.00  0.00    +0.012 C 
BRANCH   4   7
ATOM      5  C   UNL     1      39.840 -23.007 -33.615  0.00  0.00    +0.217 C 
ATOM      6  O   UNL     1      39.495 -23.881 -32.816  0.00  0.00    -0.275 OA
ATOM      7  N   UNL     1      39.296 -23.023 -34.865  0.00  0.00    -0.315 N 
ATOM      8  H   UNL     1      38.675 -23.767 -35.041  0.00  0.00    +0.000 HD
BRANCH   5   9
ATOM      9  C   UNL     1      40.848 -21.936 -33.229  0.00  0.00    +0.049 C 
BRANCH   9  13
ATOM     10  C   UNL     1      39.034 -18.044 -32.369  0.00  0.00    +0.029 A 
ATOM     11  C   UNL     1      38.280 -19.230 -32.412  0.00  0.00    -0.040 A 
ATOM     12  C   UNL     1      38.859 -20.481 -32.681  0.00  0.00    -0.056 A 
ATOM     13  C   UNL     1      40.228 -20.595 -32.921  0.00  0.00    -0.039 A 
ATOM     14  C   UNL     1      41.008 -19.442 -32.821  0.00  0.00    -0.056 A 
ATOM     15  C   UNL     1      40.418 -18.198 -32.555  0.00  0.00    -0.040 A 
BRANCH  10  17
ATOM     16  C   UNL     1      36.992 -16.684 -32.130  0.00  0.00    +0.000 C 
ATOM     17  N   UNL     1      38.449 -16.797 -32.112  0.00  0.00    -0.336 N 
ATOM     18  C   UNL     1      39.144 -15.853 -31.240  0.00  0.00    +0.000 C 
ENDBRANCH  10  17
ENDBRANCH   9  13
ENDBRANCH   5   9
ENDBRANCH   4   7
ENDBRANCH   3   4
ENDBRANCH   2   3
ENDBRANCH   1   2
BRANCH   1  19
ATOM     19  C   UNL     1      43.336 -20.692 -36.165  0.00  0.00    -0.053 C 
BRANCH  19  20
ATOM     20  C   UNL     1      44.240 -19.558 -35.670  0.00  0.00    -0.053 C 
BRANCH  20  21
ATOM     21  C   UNL     1      45.670 -20.002 -35.338  0.00  0.00    -0.052 C 
BRANCH  21  22
ATOM     22  C   UNL     1      46.759 -19.007 -35.770  0.00  0.00    -0.040 C 
BRANCH  22  23
ATOM     23  C   UNL     1      47.396 -19.328 -37.123  0.00  0.00    -0.004 C 
BRANCH  23  24
ATOM     24  N   UNL     1      46.808 -18.622 -38.265  0.00  0.00    -0.311 N 
ATOM     25  H   UNL     1      47.577 -18.203 -38.787  0.00  0.00    +0.000 HD
ATOM     26  H   UNL     1      46.145 -17.972 -37.843  0.00  0.00    +0.000 HD
BRANCH  24  27
ATOM     27  C   UNL     1      45.996 -19.394 -39.228  0.00  0.00    +0.020 C 
ATOM     28  C   UNL     1      46.098 -20.908 -38.910  0.00  0.00    -0.032 C 
ATOM     29  C   UNL     1      45.356 -21.742 -39.972  0.00  0.00    -0.039 C 
ATOM     30  C   UNL     1      45.996 -21.497 -41.347  0.00  0.00    -0.047 C 
ATOM     31  C   UNL     1      45.899 -20.008 -41.710  0.00  0.00    -0.039 C 
ATOM     32  C   UNL     1      44.422 -19.592 -41.756  0.00  0.00    -0.047 C 
ATOM     33  C   UNL     1      43.770 -19.828 -40.386  0.00  0.00    -0.039 C 
ATOM     34  C   UNL     1      43.880 -21.316 -40.016  0.00  0.00    -0.047 C 
ATOM     35  C   UNL     1      44.501 -18.987 -39.325  0.00  0.00    -0.032 C 
ATOM     36  C   UNL     1      46.629 -19.179 -40.638  0.00  0.00    -0.032 C 
ENDBRANCH  24  27
ENDBRANCH  23  24
ENDBRANCH  22  23
ENDBRANCH  21  22
ENDBRANCH  20  21
ENDBRANCH  19  20
ENDBRANCH   1  19
TORSDOF 14
ENDMDL
MODEL 12
REMARK VINA RESULT:    -6.434     17.529     19.949
REMARK INTER + INTRA:         -13.099
REMARK INTER:                  -8.633
REMARK INTRA:                  -4.465
REMARK UNBOUND:                -1.399
REMARK  Name = cpd199.pdb
REMARK  16 active torsions:
REMARK  status: ('A' for Active; 'I' for Inactive)
REMARK    1  A    between atoms: C_1  and  N_2
REMARK    2  A    between atoms: N_2  and  C_3
REMARK    3  A    between atoms: N_2  and  C_4
REMARK    4  A    between atoms: C_7  and  C_8
REMARK    5  A    between atoms: C_8  and  C_9
REMARK    6  A    between atoms: N_11  and  C_12
REMARK    7  A    between atoms: C_12  and  C_13
REMARK    8  A    between atoms: C_13  and  C_14
REMARK    9  A    between atoms: C_14  and  C_15
REMARK   10  A    between atoms: C_15  and  C_16
REMARK   11  A    between atoms: C_16  and  C_17
REMARK   12  A    between atoms: C_17  and  C_18
REMARK   13  A    between atoms: C_18  and  C_19
REMARK   14  A    between atoms: C_19  and  C_20
REMARK   15  A    between atoms: C_20  and  N_21
REMARK   16  A    between atoms: N_21  and  C_22
REMARK                            x       y       z     vdW  Elec       q    Type
REMARK                         _______ _______ _______ _____ _____    ______ ____
ROOT
ATOM      1  C   UNL     1      41.533 -17.595 -37.242  0.00  0.00    -0.053 C 
ENDROOT
BRANCH   1   2
ATOM      2  C   UNL     1      40.756 -17.905 -38.521  0.00  0.00    -0.052 C 
BRANCH   2   3
ATOM      3  C   UNL     1      39.427 -18.604 -38.234  0.00  0.00    -0.037 C 
BRANCH   3   4
ATOM      4  C   UNL     1      39.126 -19.707 -39.250  0.00  0.00    +0.012 C 
BRANCH   4   7
ATOM      5  C   UNL     1      40.256 -21.932 -38.731  0.00  0.00    +0.217 C 
ATOM      6  O   UNL     1      40.139 -22.995 -38.118  0.00  0.00    -0.275 OA
ATOM      7  N   UNL     1      39.236 -21.029 -38.662  0.00  0.00    -0.315 N 
ATOM      8  H   UNL     1      38.457 -21.319 -38.134  0.00  0.00    +0.000 HD
BRANCH   5   9
ATOM      9  C   UNL     1      41.499 -21.625 -39.552  0.00  0.00    +0.049 C 
BRANCH   9  13
ATOM     10  C   UNL     1      44.785 -19.937 -37.201  0.00  0.00    +0.029 A 
ATOM     11  C   UNL     1      43.671 -20.550 -36.600  0.00  0.00    -0.040 A 
ATOM     12  C   UNL     1      42.619 -21.099 -37.351  0.00  0.00    -0.056 A 
ATOM     13  C   UNL     1      42.639 -21.054 -38.745  0.00  0.00    -0.039 A 
ATOM     14  C   UNL     1      43.763 -20.507 -39.365  0.00  0.00    -0.056 A 
ATOM     15  C   UNL     1      44.807 -19.960 -38.605  0.00  0.00    -0.040 A 
BRANCH  10  17
ATOM     16  C   UNL     1      46.467 -20.197 -35.417  0.00  0.00    +0.000 C 
ATOM     17  N   UNL     1      45.826 -19.380 -36.447  0.00  0.00    -0.336 N 
ATOM     18  C   UNL     1      46.671 -18.354 -37.053  0.00  0.00    +0.000 C 
ENDBRANCH  10  17
ENDBRANCH   9  13
ENDBRANCH   5   9
ENDBRANCH   4   7
ENDBRANCH   3   4
ENDBRANCH   2   3
ENDBRANCH   1   2
BRANCH   1  19
ATOM     19  C   UNL     1      42.786 -16.770 -37.555  0.00  0.00    -0.053 C 
BRANCH  19  20
ATOM     20  C   UNL     1      43.574 -16.416 -36.290  0.00  0.00    -0.053 C 
BRANCH  20  21
ATOM     21  C   UNL     1      42.923 -16.915 -34.993  0.00  0.00    -0.052 C 
BRANCH  21  22
ATOM     22  C   UNL     1      43.886 -17.643 -34.041  0.00  0.00    -0.040 C 
BRANCH  22  23
ATOM     23  C   UNL     1      43.243 -18.793 -33.264  0.00  0.00    -0.004 C 
BRANCH  23  24
ATOM     24  N   UNL     1      41.855 -18.563 -32.856  0.00  0.00    -0.311 N 
ATOM     25  H   UNL     1      41.533 -17.726 -33.343  0.00  0.00    +0.000 HD
ATOM     26  H   UNL     1      41.900 -18.500 -31.839  0.00  0.00    +0.000 HD
BRANCH  24  27
ATOM     27  C   UNL     1      40.861 -19.625 -33.110  0.00  0.00    +0.020 C 
ATOM     28  C   UNL     1      41.445 -21.003 -32.706  0.00  0.00    -0.032 C 
ATOM     29  C   UNL     1      40.473 -22.141 -33.072  0.00  0.00    -0.039 C 
ATOM     30  C   UNL     1      40.247 -22.144 -34.592  0.00  0.00    -0.047 C 
ATOM     31  C   UNL     1      39.648 -20.800 -35.033  0.00  0.00    -0.039 C 
ATOM     32  C   UNL     1      38.306 -20.583 -34.320  0.00  0.00    -0.047 C 
ATOM     33  C   UNL     1      38.518 -20.574 -32.799  0.00  0.00    -0.039 C 
ATOM     34  C   UNL     1      39.131 -21.914 -32.360  0.00  0.00    -0.047 C 
ATOM     35  C   UNL     1      39.480 -19.432 -32.428  0.00  0.00    -0.032 C 
ATOM     36  C   UNL     1      40.617 -19.667 -34.651  0.00  0.00    -0.032 C 
ENDBRANCH  24  27
ENDBRANCH  23  24
ENDBRANCH  22  23
ENDBRANCH  21  22
ENDBRANCH  20  21
ENDBRANCH  19  20
ENDBRANCH   1  19
TORSDOF 14
ENDMDL
MODEL 13
REMARK VINA RESULT:    -6.347     18.954     22.056
REMARK INTER + INTRA:         -12.941
REMARK INTER:                  -9.521
REMARK INTRA:                  -3.420
REMARK UNBOUND:                -1.399
REMARK  Name = cpd199.pdb
REMARK  16 active torsions:
REMARK  status: ('A' for Active; 'I' for Inactive)
REMARK    1  A    between atoms: C_1  and  N_2
REMARK    2  A    between atoms: N_2  and  C_3
REMARK    3  A    between atoms: N_2  and  C_4
REMARK    4  A    between atoms: C_7  and  C_8
REMARK    5  A    between atoms: C_8  and  C_9
REMARK    6  A    between atoms: N_11  and  C_12
REMARK    7  A    between atoms: C_12  and  C_13
REMARK    8  A    between atoms: C_13  and  C_14
REMARK    9  A    between atoms: C_14  and  C_15
REMARK   10  A    between atoms: C_15  and  C_16
REMARK   11  A    between atoms: C_16  and  C_17
REMARK   12  A    between atoms: C_17  and  C_18
REMARK   13  A    between atoms: C_18  and  C_19
REMARK   14  A    between atoms: C_19  and  C_20
REMARK   15  A    between atoms: C_20  and  N_21
REMARK   16  A    between atoms: N_21  and  C_22
REMARK                            x       y       z     vdW  Elec       q    Type
REMARK                         _______ _______ _______ _____ _____    ______ ____
ROOT
ATOM      1  C   UNL     1      40.897 -19.448 -36.735  0.00  0.00    -0.053 C 
ENDROOT
BRANCH   1   2
ATOM      2  C   UNL     1      42.363 -19.313 -36.325  0.00  0.00    -0.052 C 
BRANCH   2   3
ATOM      3  C   UNL     1      42.792 -20.404 -35.344  0.00  0.00    -0.037 C 
BRANCH   3   4
ATOM      4  C   UNL     1      44.215 -20.188 -34.826  0.00  0.00    +0.012 C 
BRANCH   4   7
ATOM      5  C   UNL     1      45.306 -17.974 -34.191  0.00  0.00    +0.217 C 
ATOM      6  O   UNL     1      45.190 -16.965 -33.490  0.00  0.00    -0.275 OA
ATOM      7  N   UNL     1      44.344 -18.935 -34.104  0.00  0.00    -0.315 N 
ATOM      8  H   UNL     1      43.628 -18.753 -33.452  0.00  0.00    +0.000 HD
BRANCH   5   9
ATOM      9  C   UNL     1      46.490 -18.154 -35.127  0.00  0.00    +0.049 C 
BRANCH   9  13
ATOM     10  C   UNL     1      46.070 -16.085 -38.963  0.00  0.00    +0.029 A 
ATOM     11  C   UNL     1      45.005 -16.782 -38.367  0.00  0.00    -0.040 A 
ATOM     12  C   UNL     1      45.134 -17.441 -37.134  0.00  0.00    -0.056 A 
ATOM     13  C   UNL     1      46.345 -17.430 -36.443  0.00  0.00    -0.039 A 
ATOM     14  C   UNL     1      47.399 -16.691 -36.983  0.00  0.00    -0.056 A 
ATOM     15  C   UNL     1      47.259 -16.039 -38.217  0.00  0.00    -0.040 A 
BRANCH  10  17
ATOM     16  C   UNL     1      47.049 -15.505 -41.150  0.00  0.00    +0.000 C 
ATOM     17  N   UNL     1      45.940 -15.440 -40.200  0.00  0.00    -0.336 N 
ATOM     18  C   UNL     1      44.612 -15.299 -40.791  0.00  0.00    +0.000 C 
ENDBRANCH  10  17
ENDBRANCH   9  13
ENDBRANCH   5   9
ENDBRANCH   4   7
ENDBRANCH   3   4
ENDBRANCH   2   3
ENDBRANCH   1   2
BRANCH   1  19
ATOM     19  C   UNL     1      40.316 -20.777 -36.241  0.00  0.00    -0.053 C 
BRANCH  19  20
ATOM     20  C   UNL     1      39.999 -21.731 -37.397  0.00  0.00    -0.053 C 
BRANCH  20  21
ATOM     21  C   UNL     1      39.993 -21.058 -38.776  0.00  0.00    -0.052 C 
BRANCH  21  22
ATOM     22  C   UNL     1      40.937 -21.707 -39.801  0.00  0.00    -0.040 C 
BRANCH  22  23
ATOM     23  C   UNL     1      42.418 -21.411 -39.559  0.00  0.00    -0.004 C 
BRANCH  23  24
ATOM     24  N   UNL     1      43.151 -20.931 -40.733  0.00  0.00    -0.311 N 
ATOM     25  H   UNL     1      42.769 -20.017 -40.974  0.00  0.00    +0.000 HD
ATOM     26  H   UNL     1      43.023 -21.668 -41.426  0.00  0.00    +0.000 HD
BRANCH  24  27
ATOM     27  C   UNL     1      44.617 -20.778 -40.633  0.00  0.00    +0.020 C 
ATOM     28  C   UNL     1      45.320 -21.810 -41.553  0.00  0.00    -0.032 C 
ATOM     29  C   UNL     1      46.849 -21.750 -41.376  0.00  0.00    -0.039 C 
ATOM     30  C   UNL     1      47.205 -22.087 -39.920  0.00  0.00    -0.047 C 
ATOM     31  C   UNL     1      46.542 -21.074 -38.974  0.00  0.00    -0.039 C 
ATOM     32  C   UNL     1      47.047 -19.663 -39.307  0.00  0.00    -0.047 C 
ATOM     33  C   UNL     1      46.695 -19.311 -40.760  0.00  0.00    -0.039 C 
ATOM     34  C   UNL     1      47.346 -20.334 -41.705  0.00  0.00    -0.047 C 
ATOM     35  C   UNL     1      45.168 -19.359 -40.937  0.00  0.00    -0.032 C 
ATOM     36  C   UNL     1      45.016 -21.128 -39.166  0.00  0.00    -0.032 C 
ENDBRANCH  24  27
ENDBRANCH  23  24
ENDBRANCH  22  23
ENDBRANCH  21  22
ENDBRANCH  20  21
ENDBRANCH  19  20
ENDBRANCH   1  19
TORSDOF 14
ENDMDL
MODEL 14
REMARK VINA RESULT:    -6.337     18.775     22.461
REMARK INTER + INTRA:         -12.923
REMARK INTER:                  -9.440
REMARK INTRA:                  -3.483
REMARK UNBOUND:                -1.399
REMARK  Name = cpd199.pdb
REMARK  16 active torsions:
REMARK  status: ('A' for Active; 'I' for Inactive)
REMARK    1  A    between atoms: C_1  and  N_2
REMARK    2  A    between atoms: N_2  and  C_3
REMARK    3  A    between atoms: N_2  and  C_4
REMARK    4  A    between atoms: C_7  and  C_8
REMARK    5  A    between atoms: C_8  and  C_9
REMARK    6  A    between atoms: N_11  and  C_12
REMARK    7  A    between atoms: C_12  and  C_13
REMARK    8  A    between atoms: C_13  and  C_14
REMARK    9  A    between atoms: C_14  and  C_15
REMARK   10  A    between atoms: C_15  and  C_16
REMARK   11  A    between atoms: C_16  and  C_17
REMARK   12  A    between atoms: C_17  and  C_18
REMARK   13  A    between atoms: C_18  and  C_19
REMARK   14  A    between atoms: C_19  and  C_20
REMARK   15  A    between atoms: C_20  and  N_21
REMARK   16  A    between atoms: N_21  and  C_22
REMARK                            x       y       z     vdW  Elec       q    Type
REMARK                         _______ _______ _______ _____ _____    ______ ____
ROOT
ATOM      1  C   UNL     1      46.712 -18.065 -35.711  0.00  0.00    -0.053 C 
ENDROOT
BRANCH   1   2
ATOM      2  C   UNL     1      45.186 -18.153 -35.734  0.00  0.00    -0.052 C 
BRANCH   2   3
ATOM      3  C   UNL     1      44.606 -18.503 -34.364  0.00  0.00    -0.037 C 
BRANCH   3   4
ATOM      4  C   UNL     1      44.542 -20.014 -34.134  0.00  0.00    +0.012 C 
BRANCH   4   7
ATOM      5  C   UNL     1      42.282 -20.948 -34.853  0.00  0.00    +0.217 C 
ATOM      6  O   UNL     1      41.176 -21.315 -34.449  0.00  0.00    -0.275 OA
ATOM      7  N   UNL     1      43.179 -20.474 -33.942  0.00  0.00    -0.315 N 
ATOM      8  H   UNL     1      42.853 -20.439 -33.013  0.00  0.00    +0.000 HD
BRANCH   5   9
ATOM      9  C   UNL     1      42.647 -21.013 -36.328  0.00  0.00    +0.049 C 
BRANCH   9  13
ATOM     10  C   UNL     1      40.174 -18.487 -38.914  0.00  0.00    +0.029 A 
ATOM     11  C   UNL     1      40.037 -19.886 -38.879  0.00  0.00    -0.040 A 
ATOM     12  C   UNL     1      40.823 -20.699 -38.046  0.00  0.00    -0.056 A 
ATOM     13  C   UNL     1      41.788 -20.139 -37.208  0.00  0.00    -0.039 A 
ATOM     14  C   UNL     1      41.899 -18.747 -37.179  0.00  0.00    -0.056 A 
ATOM     15  C   UNL     1      41.110 -17.946 -38.017  0.00  0.00    -0.040 A 
BRANCH  10  17
ATOM     16  C   UNL     1      37.989 -18.025 -39.957  0.00  0.00    +0.000 C 
ATOM     17  N   UNL     1      39.396 -17.682 -39.755  0.00  0.00    -0.336 N 
ATOM     18  C   UNL     1      39.723 -16.264 -39.883  0.00  0.00    +0.000 C 
ENDBRANCH  10  17
ENDBRANCH   9  13
ENDBRANCH   5   9
ENDBRANCH   4   7
ENDBRANCH   3   4
ENDBRANCH   2   3
ENDBRANCH   1   2
BRANCH   1  19
ATOM     19  C   UNL     1      47.257 -17.723 -37.102  0.00  0.00    -0.053 C 
BRANCH  19  20
ATOM     20  C   UNL     1      47.248 -16.214 -37.368  0.00  0.00    -0.053 C 
BRANCH  20  21
ATOM     21  C   UNL     1      47.200 -15.845 -38.856  0.00  0.00    -0.052 C 
BRANCH  21  22
ATOM     22  C   UNL     1      45.789 -15.551 -39.390  0.00  0.00    -0.040 C 
BRANCH  22  23
ATOM     23  C   UNL     1      45.296 -16.554 -40.434  0.00  0.00    -0.004 C 
BRANCH  23  24
ATOM     24  N   UNL     1      46.226 -17.646 -40.729  0.00  0.00    -0.311 N 
ATOM     25  H   UNL     1      46.965 -17.610 -40.027  0.00  0.00    +0.000 HD
ATOM     26  H   UNL     1      46.514 -17.476 -41.692  0.00  0.00    +0.000 HD
BRANCH  24  27
ATOM     27  C   UNL     1      45.706 -19.029 -40.745  0.00  0.00    +0.020 C 
ATOM     28  C   UNL     1      46.861 -20.024 -41.028  0.00  0.00    -0.032 C 
ATOM     29  C   UNL     1      46.324 -21.462 -41.168  0.00  0.00    -0.039 C 
ATOM     30  C   UNL     1      45.339 -21.522 -42.346  0.00  0.00    -0.047 C 
ATOM     31  C   UNL     1      44.167 -20.562 -42.095  0.00  0.00    -0.039 C 
ATOM     32  C   UNL     1      43.441 -20.972 -40.805  0.00  0.00    -0.047 C 
ATOM     33  C   UNL     1      44.413 -20.912 -39.618  0.00  0.00    -0.039 C 
ATOM     34  C   UNL     1      45.594 -21.862 -39.876  0.00  0.00    -0.047 C 
ATOM     35  C   UNL     1      44.943 -19.475 -39.469  0.00  0.00    -0.032 C 
ATOM     36  C   UNL     1      44.711 -19.131 -41.942  0.00  0.00    -0.032 C 
ENDBRANCH  24  27
ENDBRANCH  23  24
ENDBRANCH  22  23
ENDBRANCH  21  22
ENDBRANCH  20  21
ENDBRANCH  19  20
ENDBRANCH   1  19
TORSDOF 14
ENDMDL
MODEL 15
REMARK VINA RESULT:    -6.333     17.406     20.692
REMARK INTER + INTRA:         -12.914
REMARK INTER:                 -10.083
REMARK INTRA:                  -2.832
REMARK UNBOUND:                -1.399
REMARK  Name = cpd199.pdb
REMARK  16 active torsions:
REMARK  status: ('A' for Active; 'I' for Inactive)
REMARK    1  A    between atoms: C_1  and  N_2
REMARK    2  A    between atoms: N_2  and  C_3
REMARK    3  A    between atoms: N_2  and  C_4
REMARK    4  A    between atoms: C_7  and  C_8
REMARK    5  A    between atoms: C_8  and  C_9
REMARK    6  A    between atoms: N_11  and  C_12
REMARK    7  A    between atoms: C_12  and  C_13
REMARK    8  A    between atoms: C_13  and  C_14
REMARK    9  A    between atoms: C_14  and  C_15
REMARK   10  A    between atoms: C_15  and  C_16
REMARK   11  A    between atoms: C_16  and  C_17
REMARK   12  A    between atoms: C_17  and  C_18
REMARK   13  A    between atoms: C_18  and  C_19
REMARK   14  A    between atoms: C_19  and  C_20
REMARK   15  A    between atoms: C_20  and  N_21
REMARK   16  A    between atoms: N_21  and  C_22
REMARK                            x       y       z     vdW  Elec       q    Type
REMARK                         _______ _______ _______ _____ _____    ______ ____
ROOT
ATOM      1  C   UNL     1      43.663 -18.520 -37.455  0.00  0.00    -0.053 C 
ENDROOT
BRANCH   1   2
ATOM      2  C   UNL     1      44.559 -17.737 -36.497  0.00  0.00    -0.052 C 
BRANCH   2   3
ATOM      3  C   UNL     1      45.171 -16.501 -37.156  0.00  0.00    -0.037 C 
BRANCH   3   4
ATOM      4  C   UNL     1      44.250 -15.900 -38.220  0.00  0.00    +0.012 C 
BRANCH   4   7
ATOM      5  C   UNL     1      44.971 -15.912 -40.664  0.00  0.00    +0.217 C 
ATOM      6  O   UNL     1      45.672 -15.343 -41.504  0.00  0.00    -0.275 OA
ATOM      7  N   UNL     1      44.990 -15.447 -39.383  0.00  0.00    -0.315 N 
ATOM      8  H   UNL     1      45.598 -14.689 -39.222  0.00  0.00    +0.000 HD
BRANCH   5   9
ATOM      9  C   UNL     1      44.107 -17.107 -41.035  0.00  0.00    +0.049 C 
BRANCH   9  13
ATOM     10  C   UNL     1      46.372 -20.826 -41.497  0.00  0.00    +0.029 A 
ATOM     11  C   UNL     1      46.725 -19.846 -40.553  0.00  0.00    -0.040 A 
ATOM     12  C   UNL     1      45.996 -18.655 -40.397  0.00  0.00    -0.056 A 
ATOM     13  C   UNL     1      44.877 -18.395 -41.188  0.00  0.00    -0.039 A 
ATOM     14  C   UNL     1      44.471 -19.381 -42.088  0.00  0.00    -0.056 A 
ATOM     15  C   UNL     1      45.208 -20.565 -42.237  0.00  0.00    -0.040 A 
BRANCH  10  17
ATOM     16  C   UNL     1      47.933 -22.481 -40.546  0.00  0.00    +0.000 C 
ATOM     17  N   UNL     1      47.109 -22.007 -41.657  0.00  0.00    -0.336 N 
ATOM     18  C   UNL     1      46.603 -23.043 -42.553  0.00  0.00    +0.000 C 
ENDBRANCH  10  17
ENDBRANCH   9  13
ENDBRANCH   5   9
ENDBRANCH   4   7
ENDBRANCH   3   4
ENDBRANCH   2   3
ENDBRANCH   1   2
BRANCH   1  19
ATOM     19  C   UNL     1      43.896 -20.027 -37.306  0.00  0.00    -0.053 C 
BRANCH  19  20
ATOM     20  C   UNL     1      43.491 -20.800 -38.566  0.00  0.00    -0.053 C 
BRANCH  20  21
ATOM     21  C   UNL     1      42.142 -21.520 -38.446  0.00  0.00    -0.052 C 
BRANCH  21  22
ATOM     22  C   UNL     1      40.951 -20.734 -39.017  0.00  0.00    -0.040 C 
BRANCH  22  23
ATOM     23  C   UNL     1      39.596 -21.148 -38.440  0.00  0.00    -0.004 C 
BRANCH  23  24
ATOM     24  N   UNL     1      39.130 -20.335 -37.314  0.00  0.00    -0.311 N 
ATOM     25  H   UNL     1      38.172 -20.054 -37.522  0.00  0.00    +0.000 HD
ATOM     26  H   UNL     1      39.815 -19.582 -37.249  0.00  0.00    +0.000 HD
BRANCH  24  27
ATOM     27  C   UNL     1      39.126 -20.937 -35.965  0.00  0.00    +0.020 C 
ATOM     28  C   UNL     1      40.426 -20.556 -35.211  0.00  0.00    -0.032 C 
ATOM     29  C   UNL     1      40.499 -21.269 -33.848  0.00  0.00    -0.039 C 
ATOM     30  C   UNL     1      40.503 -22.789 -34.071  0.00  0.00    -0.047 C 
ATOM     31  C   UNL     1      39.219 -23.213 -34.799  0.00  0.00    -0.039 C 
ATOM     32  C   UNL     1      38.001 -22.827 -33.947  0.00  0.00    -0.047 C 
ATOM     33  C   UNL     1      37.982 -21.309 -33.720  0.00  0.00    -0.039 C 
ATOM     34  C   UNL     1      39.275 -20.883 -33.004  0.00  0.00    -0.047 C 
ATOM     35  C   UNL     1      37.898 -20.593 -35.079  0.00  0.00    -0.032 C 
ATOM     36  C   UNL     1      39.144 -22.486 -36.153  0.00  0.00    -0.032 C 
ENDBRANCH  24  27
ENDBRANCH  23  24
ENDBRANCH  22  23
ENDBRANCH  21  22
ENDBRANCH  20  21
ENDBRANCH  19  20
ENDBRANCH   1  19
TORSDOF 14
ENDMDL
MODEL 16
REMARK VINA RESULT:    -6.318     16.789     21.199
REMARK INTER + INTRA:         -12.889
REMARK INTER:                  -9.927
REMARK INTRA:                  -2.962
REMARK UNBOUND:                -1.399
REMARK  Name = cpd199.pdb
REMARK  16 active torsions:
REMARK  status: ('A' for Active; 'I' for Inactive)
REMARK    1  A    between atoms: C_1  and  N_2
REMARK    2  A    between atoms: N_2  and  C_3
REMARK    3  A    between atoms: N_2  and  C_4
REMARK    4  A    between atoms: C_7  and  C_8
REMARK    5  A    between atoms: C_8  and  C_9
REMARK    6  A    between atoms: N_11  and  C_12
REMARK    7  A    between atoms: C_12  and  C_13
REMARK    8  A    between atoms: C_13  and  C_14
REMARK    9  A    between atoms: C_14  and  C_15
REMARK   10  A    between atoms: C_15  and  C_16
REMARK   11  A    between atoms: C_16  and  C_17
REMARK   12  A    between atoms: C_17  and  C_18
REMARK   13  A    between atoms: C_18  and  C_19
REMARK   14  A    between atoms: C_19  and  C_20
REMARK   15  A    between atoms: C_20  and  N_21
REMARK   16  A    between atoms: N_21  and  C_22
REMARK                            x       y       z     vdW  Elec       q    Type
REMARK                         _______ _______ _______ _____ _____    ______ ____
ROOT
ATOM      1  C   UNL     1      41.237 -20.423 -38.705  0.00  0.00    -0.053 C 
ENDROOT
BRANCH   1   2
ATOM      2  C   UNL     1      41.691 -20.397 -37.245  0.00  0.00    -0.052 C 
BRANCH   2   3
ATOM      3  C   UNL     1      40.654 -21.014 -36.306  0.00  0.00    -0.037 C 
BRANCH   3   4
ATOM      4  C   UNL     1      41.148 -22.320 -35.682  0.00  0.00    +0.012 C 
BRANCH   4   7
ATOM      5  C   UNL     1      40.081 -22.857 -33.430  0.00  0.00    +0.217 C 
ATOM      6  O   UNL     1      39.122 -23.405 -32.882  0.00  0.00    -0.275 OA
ATOM      7  N   UNL     1      40.160 -22.900 -34.791  0.00  0.00    -0.315 N 
ATOM      8  H   UNL     1      39.439 -23.402 -35.236  0.00  0.00    +0.000 HD
BRANCH   5   9
ATOM      9  C   UNL     1      41.157 -22.151 -32.620  0.00  0.00    +0.049 C 
BRANCH   9  13
ATOM     10  C   UNL     1      40.870 -17.782 -32.652  0.00  0.00    +0.029 A 
ATOM     11  C   UNL     1      42.065 -18.457 -32.953  0.00  0.00    -0.040 A 
ATOM     12  C   UNL     1      42.160 -19.858 -32.950  0.00  0.00    -0.056 A 
ATOM     13  C   UNL     1      41.051 -20.646 -32.642  0.00  0.00    -0.039 A 
ATOM     14  C   UNL     1      39.837 -20.001 -32.402  0.00  0.00    -0.056 A 
ATOM     15  C   UNL     1      39.756 -18.601 -32.405  0.00  0.00    -0.040 A 
BRANCH  10  17
ATOM     16  C   UNL     1      39.689 -15.748 -31.912  0.00  0.00    +0.000 C 
ATOM     17  N   UNL     1      40.784 -16.384 -32.644  0.00  0.00    -0.336 N 
ATOM     18  C   UNL     1      42.009 -15.596 -32.753  0.00  0.00    +0.000 C 
ENDBRANCH  10  17
ENDBRANCH   9  13
ENDBRANCH   5   9
ENDBRANCH   4   7
ENDBRANCH   3   4
ENDBRANCH   2   3
ENDBRANCH   1   2
BRANCH   1  19
ATOM     19  C   UNL     1      42.355 -19.931 -39.629  0.00  0.00    -0.053 C 
BRANCH  19  20
ATOM     20  C   UNL     1      42.974 -21.074 -40.442  0.00  0.00    -0.053 C 
BRANCH  20  21
ATOM     21  C   UNL     1      44.140 -20.638 -41.338  0.00  0.00    -0.052 C 
BRANCH  21  22
ATOM     22  C   UNL     1      44.322 -19.116 -41.445  0.00  0.00    -0.040 C 
BRANCH  22  23
ATOM     23  C   UNL     1      45.531 -18.577 -40.679  0.00  0.00    -0.004 C 
BRANCH  23  24
ATOM     24  N   UNL     1      46.117 -19.511 -39.714  0.00  0.00    -0.311 N 
ATOM     25  H   UNL     1      47.106 -19.604 -39.947  0.00  0.00    +0.000 HD
ATOM     26  H   UNL     1      45.553 -20.355 -39.809  0.00  0.00    +0.000 HD
BRANCH  24  27
ATOM     27  C   UNL     1      46.037 -19.182 -38.277  0.00  0.00    +0.020 C 
ATOM     28  C   UNL     1      47.464 -19.020 -37.691  0.00  0.00    -0.032 C 
ATOM     29  C   UNL     1      47.409 -18.795 -36.168  0.00  0.00    -0.039 C 
ATOM     30  C   UNL     1      46.751 -20.011 -35.498  0.00  0.00    -0.047 C 
ATOM     31  C   UNL     1      45.325 -20.195 -36.038  0.00  0.00    -0.039 C 
ATOM     32  C   UNL     1      44.499 -18.937 -35.731  0.00  0.00    -0.047 C 
ATOM     33  C   UNL     1      45.144 -17.713 -36.397  0.00  0.00    -0.039 C 
ATOM     34  C   UNL     1      46.576 -17.538 -35.868  0.00  0.00    -0.047 C 
ATOM     35  C   UNL     1      45.189 -17.931 -37.920  0.00  0.00    -0.032 C 
ATOM     36  C   UNL     1      45.385 -20.405 -37.561  0.00  0.00    -0.032 C 
ENDBRANCH  24  27
ENDBRANCH  23  24
ENDBRANCH  22  23
ENDBRANCH  21  22
ENDBRANCH  20  21
ENDBRANCH  19  20
ENDBRANCH   1  19
TORSDOF 14
ENDMDL
MODEL 17
REMARK VINA RESULT:    -6.214     17.756     21.451
REMARK INTER + INTRA:         -12.698
REMARK INTER:                  -8.984
REMARK INTRA:                  -3.714
REMARK UNBOUND:                -1.399
REMARK  Name = cpd199.pdb
REMARK  16 active torsions:
REMARK  status: ('A' for Active; 'I' for Inactive)
REMARK    1  A    between atoms: C_1  and  N_2
REMARK    2  A    between atoms: N_2  and  C_3
REMARK    3  A    between atoms: N_2  and  C_4
REMARK    4  A    between atoms: C_7  and  C_8
REMARK    5  A    between atoms: C_8  and  C_9
REMARK    6  A    between atoms: N_11  and  C_12
REMARK    7  A    between atoms: C_12  and  C_13
REMARK    8  A    between atoms: C_13  and  C_14
REMARK    9  A    between atoms: C_14  and  C_15
REMARK   10  A    between atoms: C_15  and  C_16
REMARK   11  A    between atoms: C_16  and  C_17
REMARK   12  A    between atoms: C_17  and  C_18
REMARK   13  A    between atoms: C_18  and  C_19
REMARK   14  A    between atoms: C_19  and  C_20
REMARK   15  A    between atoms: C_20  and  N_21
REMARK   16  A    between atoms: N_21  and  C_22
REMARK                            x       y       z     vdW  Elec       q    Type
REMARK                         _______ _______ _______ _____ _____    ______ ____
ROOT
ATOM      1  C   UNL     1      41.516 -17.186 -36.136  0.00  0.00    -0.053 C 
ENDROOT
BRANCH   1   2
ATOM      2  C   UNL     1      42.872 -16.501 -35.966  0.00  0.00    -0.052 C 
BRANCH   2   3
ATOM      3  C   UNL     1      43.874 -16.928 -37.039  0.00  0.00    -0.037 C 
BRANCH   3   4
ATOM      4  C   UNL     1      45.309 -16.956 -36.509  0.00  0.00    +0.012 C 
BRANCH   4   7
ATOM      5  C   UNL     1      45.372 -17.965 -34.170  0.00  0.00    +0.217 C 
ATOM      6  O   UNL     1      45.439 -17.701 -32.967  0.00  0.00    -0.275 OA
ATOM      7  N   UNL     1      45.351 -16.932 -35.059  0.00  0.00    -0.315 N 
ATOM      8  H   UNL     1      45.366 -16.033 -34.656  0.00  0.00    +0.000 HD
BRANCH   5   9
ATOM      9  C   UNL     1      45.308 -19.403 -34.661  0.00  0.00    +0.049 C 
BRANCH   9  13
ATOM     10  C   UNL     1      41.247 -21.019 -34.942  0.00  0.00    +0.029 A 
ATOM     11  C   UNL     1      41.669 -20.235 -33.854  0.00  0.00    -0.040 A 
ATOM     12  C   UNL     1      42.968 -19.709 -33.763  0.00  0.00    -0.056 A 
ATOM     13  C   UNL     1      43.906 -19.950 -34.767  0.00  0.00    -0.039 A 
ATOM     14  C   UNL     1      43.492 -20.673 -35.888  0.00  0.00    -0.056 A 
ATOM     15  C   UNL     1      42.193 -21.195 -35.966  0.00  0.00    -0.040 A 
BRANCH  10  17
ATOM     16  C   UNL     1      38.810 -20.652 -34.872  0.00  0.00    +0.000 C 
ATOM     17  N   UNL     1      39.954 -21.551 -35.022  0.00  0.00    -0.336 N 
ATOM     18  C   UNL     1      39.722 -22.733 -35.848  0.00  0.00    +0.000 C 
ENDBRANCH  10  17
ENDBRANCH   9  13
ENDBRANCH   5   9
ENDBRANCH   4   7
ENDBRANCH   3   4
ENDBRANCH   2   3
ENDBRANCH   1   2
BRANCH   1  19
ATOM     19  C   UNL     1      41.466 -17.969 -37.452  0.00  0.00    -0.053 C 
BRANCH  19  20
ATOM     20  C   UNL     1      40.077 -18.559 -37.718  0.00  0.00    -0.053 C 
BRANCH  20  21
ATOM     21  C   UNL     1      40.106 -19.943 -38.381  0.00  0.00    -0.052 C 
BRANCH  21  22
ATOM     22  C   UNL     1      40.982 -20.022 -39.641  0.00  0.00    -0.040 C 
BRANCH  22  23
ATOM     23  C   UNL     1      42.160 -20.990 -39.521  0.00  0.00    -0.004 C 
BRANCH  23  24
ATOM     24  N   UNL     1      43.019 -21.067 -40.705  0.00  0.00    -0.311 N 
ATOM     25  H   UNL     1      42.686 -20.365 -41.365  0.00  0.00    +0.000 HD
ATOM     26  H   UNL     1      42.942 -22.038 -41.007  0.00  0.00    +0.000 HD
BRANCH  24  27
ATOM     27  C   UNL     1      44.471 -20.854 -40.537  0.00  0.00    +0.020 C 
ATOM     28  C   UNL     1      44.854 -20.986 -39.040  0.00  0.00    -0.032 C 
ATOM     29  C   UNL     1      46.342 -20.650 -38.823  0.00  0.00    -0.039 C 
ATOM     30  C   UNL     1      46.603 -19.200 -39.259  0.00  0.00    -0.047 C 
ATOM     31  C   UNL     1      46.254 -19.030 -40.745  0.00  0.00    -0.039 C 
ATOM     32  C   UNL     1      47.125 -19.977 -41.582  0.00  0.00    -0.047 C 
ATOM     33  C   UNL     1      46.872 -21.431 -41.160  0.00  0.00    -0.039 C 
ATOM     34  C   UNL     1      47.207 -21.597 -39.669  0.00  0.00    -0.047 C 
ATOM     35  C   UNL     1      45.389 -21.774 -41.386  0.00  0.00    -0.032 C 
ATOM     36  C   UNL     1      44.771 -19.382 -40.957  0.00  0.00    -0.032 C 
ENDBRANCH  24  27
ENDBRANCH  23  24
ENDBRANCH  22  23
ENDBRANCH  21  22
ENDBRANCH  20  21
ENDBRANCH  19  20
ENDBRANCH   1  19
TORSDOF 14
ENDMDL
MODEL 18
REMARK VINA RESULT:    -6.210     17.676     21.406
REMARK INTER + INTRA:         -12.691
REMARK INTER:                  -8.902
REMARK INTRA:                  -3.788
REMARK UNBOUND:                -1.399
REMARK  Name = cpd199.pdb
REMARK  16 active torsions:
REMARK  status: ('A' for Active; 'I' for Inactive)
REMARK    1  A    between atoms: C_1  and  N_2
REMARK    2  A    between atoms: N_2  and  C_3
REMARK    3  A    between atoms: N_2  and  C_4
REMARK    4  A    between atoms: C_7  and  C_8
REMARK    5  A    between atoms: C_8  and  C_9
REMARK    6  A    between atoms: N_11  and  C_12
REMARK    7  A    between atoms: C_12  and  C_13
REMARK    8  A    between atoms: C_13  and  C_14
REMARK    9  A    between atoms: C_14  and  C_15
REMARK   10  A    between atoms: C_15  and  C_16
REMARK   11  A    between atoms: C_16  and  C_17
REMARK   12  A    between atoms: C_17  and  C_18
REMARK   13  A    between atoms: C_18  and  C_19
REMARK   14  A    between atoms: C_19  and  C_20
REMARK   15  A    between atoms: C_20  and  N_21
REMARK   16  A    between atoms: N_21  and  C_22
REMARK                            x       y       z     vdW  Elec       q    Type
REMARK                         _______ _______ _______ _____ _____    ______ ____
ROOT
ATOM      1  C   UNL     1      40.244 -19.860 -37.983  0.00  0.00    -0.053 C 
ENDROOT
BRANCH   1   2
ATOM      2  C   UNL     1      40.701 -21.307 -38.168  0.00  0.00    -0.052 C 
BRANCH   2   3
ATOM      3  C   UNL     1      41.270 -21.902 -36.880  0.00  0.00    -0.037 C 
BRANCH   3   4
ATOM      4  C   UNL     1      40.186 -22.137 -35.826  0.00  0.00    +0.012 C 
BRANCH   4   7
ATOM      5  C   UNL     1      41.122 -21.737 -33.490  0.00  0.00    +0.217 C 
ATOM      6  O   UNL     1      41.556 -22.291 -32.477  0.00  0.00    -0.275 OA
ATOM      7  N   UNL     1      40.751 -22.517 -34.545  0.00  0.00    -0.315 N 
ATOM      8  H   UNL     1      40.887 -23.484 -34.418  0.00  0.00    +0.000 HD
BRANCH   5   9
ATOM      9  C   UNL     1      41.005 -20.224 -33.575  0.00  0.00    +0.049 C 
BRANCH   9  13
ATOM     10  C   UNL     1      44.291 -18.317 -35.752  0.00  0.00    +0.029 A 
ATOM     11  C   UNL     1      42.994 -17.776 -35.729  0.00  0.00    -0.040 A 
ATOM     12  C   UNL     1      41.939 -18.381 -35.026  0.00  0.00    -0.056 A 
ATOM     13  C   UNL     1      42.142 -19.563 -34.313  0.00  0.00    -0.039 A 
ATOM     14  C   UNL     1      43.436 -20.085 -34.269  0.00  0.00    -0.056 A 
ATOM     15  C   UNL     1      44.481 -19.473 -34.977  0.00  0.00    -0.040 A 
BRANCH  10  17
ATOM     16  C   UNL     1      45.537 -16.274 -36.342  0.00  0.00    +0.000 C 
ATOM     17  N   UNL     1      45.337 -17.717 -36.465  0.00  0.00    -0.336 N 
ATOM     18  C   UNL     1      46.538 -18.497 -36.755  0.00  0.00    +0.000 C 
ENDBRANCH  10  17
ENDBRANCH   9  13
ENDBRANCH   5   9
ENDBRANCH   4   7
ENDBRANCH   3   4
ENDBRANCH   2   3
ENDBRANCH   1   2
BRANCH   1  19
ATOM     19  C   UNL     1      41.012 -18.925 -38.924  0.00  0.00    -0.053 C 
BRANCH  19  20
ATOM     20  C   UNL     1      40.670 -17.452 -38.675  0.00  0.00    -0.053 C 
BRANCH  20  21
ATOM     21  C   UNL     1      41.475 -16.473 -39.540  0.00  0.00    -0.052 C 
BRANCH  21  22
ATOM     22  C   UNL     1      42.945 -16.317 -39.119  0.00  0.00    -0.040 C 
BRANCH  22  23
ATOM     23  C   UNL     1      43.941 -16.451 -40.272  0.00  0.00    -0.004 C 
BRANCH  23  24
ATOM     24  N   UNL     1      45.075 -17.341 -40.008  0.00  0.00    -0.311 N 
ATOM     25  H   UNL     1      45.255 -17.309 -39.004  0.00  0.00    +0.000 HD
ATOM     26  H   UNL     1      45.818 -16.984 -40.608  0.00  0.00    +0.000 HD
BRANCH  24  27
ATOM     27  C   UNL     1      44.956 -18.764 -40.385  0.00  0.00    +0.020 C 
ATOM     28  C   UNL     1      46.352 -19.332 -40.751  0.00  0.00    -0.032 C 
ATOM     29  C   UNL     1      46.238 -20.780 -41.263  0.00  0.00    -0.039 C 
ATOM     30  C   UNL     1      45.366 -20.804 -42.527  0.00  0.00    -0.047 C 
ATOM     31  C   UNL     1      43.964 -20.266 -42.204  0.00  0.00    -0.039 C 
ATOM     32  C   UNL     1      43.319 -21.147 -41.125  0.00  0.00    -0.047 C 
ATOM     33  C   UNL     1      44.179 -21.130 -39.853  0.00  0.00    -0.039 C 
ATOM     34  C   UNL     1      45.586 -21.654 -40.180  0.00  0.00    -0.047 C 
ATOM     35  C   UNL     1      44.285 -19.686 -39.332  0.00  0.00    -0.032 C 
ATOM     36  C   UNL     1      44.086 -18.824 -41.679  0.00  0.00    -0.032 C 
ENDBRANCH  24  27
ENDBRANCH  23  24
ENDBRANCH  22  23
ENDBRANCH  21  22
ENDBRANCH  20  21
ENDBRANCH  19  20
ENDBRANCH   1  19
TORSDOF 14
ENDMDL
MODEL 19
REMARK VINA RESULT:    -6.148     16.927     21.426
REMARK INTER + INTRA:         -12.579
REMARK INTER:                  -9.813
REMARK INTRA:                  -2.767
REMARK UNBOUND:                -1.399
REMARK  Name = cpd199.pdb
REMARK  16 active torsions:
REMARK  status: ('A' for Active; 'I' for Inactive)
REMARK    1  A    between atoms: C_1  and  N_2
REMARK    2  A    between atoms: N_2  and  C_3
REMARK    3  A    between atoms: N_2  and  C_4
REMARK    4  A    between atoms: C_7  and  C_8
REMARK    5  A    between atoms: C_8  and  C_9
REMARK    6  A    between atoms: N_11  and  C_12
REMARK    7  A    between atoms: C_12  and  C_13
REMARK    8  A    between atoms: C_13  and  C_14
REMARK    9  A    between atoms: C_14  and  C_15
REMARK   10  A    between atoms: C_15  and  C_16
REMARK   11  A    between atoms: C_16  and  C_17
REMARK   12  A    between atoms: C_17  and  C_18
REMARK   13  A    between atoms: C_18  and  C_19
REMARK   14  A    between atoms: C_19  and  C_20
REMARK   15  A    between atoms: C_20  and  N_21
REMARK   16  A    between atoms: N_21  and  C_22
REMARK                            x       y       z     vdW  Elec       q    Type
REMARK                         _______ _______ _______ _____ _____    ______ ____
ROOT
ATOM      1  C   UNL     1      41.411 -18.164 -34.534  0.00  0.00    -0.053 C 
ENDROOT
BRANCH   1   2
ATOM      2  C   UNL     1      41.255 -19.064 -33.309  0.00  0.00    -0.052 C 
BRANCH   2   3
ATOM      3  C   UNL     1      41.682 -20.504 -33.592  0.00  0.00    -0.037 C 
BRANCH   3   4
ATOM      4  C   UNL     1      41.015 -21.501 -32.642  0.00  0.00    +0.012 C 
BRANCH   4   7
ATOM      5  C   UNL     1      39.457 -22.899 -34.097  0.00  0.00    +0.217 C 
ATOM      6  O   UNL     1      39.300 -24.004 -34.620  0.00  0.00    -0.275 OA
ATOM      7  N   UNL     1      40.570 -22.695 -33.337  0.00  0.00    -0.315 N 
ATOM      8  H   UNL     1      41.162 -23.477 -33.245  0.00  0.00    +0.000 HD
BRANCH   5   9
ATOM      9  C   UNL     1      38.439 -21.784 -34.282  0.00  0.00    +0.049 C 
BRANCH   9  13
ATOM     10  C   UNL     1      39.136 -19.349 -37.854  0.00  0.00    +0.029 A 
ATOM     11  C   UNL     1      39.615 -20.666 -37.739  0.00  0.00    -0.040 A 
ATOM     12  C   UNL     1      39.387 -21.452 -36.598  0.00  0.00    -0.056 A 
ATOM     13  C   UNL     1      38.667 -20.947 -35.516  0.00  0.00    -0.039 A 
ATOM     14  C   UNL     1      38.127 -19.665 -35.632  0.00  0.00    -0.056 A 
ATOM     15  C   UNL     1      38.363 -18.888 -36.776  0.00  0.00    -0.040 A 
BRANCH  10  17
ATOM     16  C   UNL     1      38.238 -18.117 -39.791  0.00  0.00    +0.000 C 
ATOM     17  N   UNL     1      39.376 -18.564 -38.989  0.00  0.00    -0.336 N 
ATOM     18  C   UNL     1      40.547 -17.691 -39.014  0.00  0.00    +0.000 C 
ENDBRANCH  10  17
ENDBRANCH   9  13
ENDBRANCH   5   9
ENDBRANCH   4   7
ENDBRANCH   3   4
ENDBRANCH   2   3
ENDBRANCH   1   2
BRANCH   1  19
ATOM     19  C   UNL     1      42.162 -18.894 -35.651  0.00  0.00    -0.053 C 
BRANCH  19  20
ATOM     20  C   UNL     1      43.399 -18.119 -36.116  0.00  0.00    -0.053 C 
BRANCH  20  21
ATOM     21  C   UNL     1      44.682 -18.484 -35.358  0.00  0.00    -0.052 C 
BRANCH  21  22
ATOM     22  C   UNL     1      45.296 -19.832 -35.766  0.00  0.00    -0.040 C 
BRANCH  22  23
ATOM     23  C   UNL     1      46.068 -19.792 -37.086  0.00  0.00    -0.004 C 
BRANCH  23  24
ATOM     24  N   UNL     1      45.827 -20.928 -37.978  0.00  0.00    -0.311 N 
ATOM     25  H   UNL     1      44.926 -21.328 -37.718  0.00  0.00    +0.000 HD
ATOM     26  H   UNL     1      46.640 -21.529 -37.843  0.00  0.00    +0.000 HD
BRANCH  24  27
ATOM     27  C   UNL     1      45.793 -20.685 -39.434  0.00  0.00    +0.020 C 
ATOM     28  C   UNL     1      44.366 -20.947 -39.981  0.00  0.00    -0.032 C 
ATOM     29  C   UNL     1      44.334 -20.816 -41.516  0.00  0.00    -0.039 C 
ATOM     30  C   UNL     1      45.281 -21.856 -42.133  0.00  0.00    -0.047 C 
ATOM     31  C   UNL     1      46.713 -21.620 -41.631  0.00  0.00    -0.039 C 
ATOM     32  C   UNL     1      47.169 -20.212 -42.040  0.00  0.00    -0.047 C 
ATOM     33  C   UNL     1      46.233 -19.161 -41.427  0.00  0.00    -0.039 C 
ATOM     34  C   UNL     1      44.797 -19.407 -41.918  0.00  0.00    -0.047 C 
ATOM     35  C   UNL     1      46.272 -19.282 -39.894  0.00  0.00    -0.032 C 
ATOM     36  C   UNL     1      46.736 -21.737 -40.097  0.00  0.00    -0.032 C 
ENDBRANCH  24  27
ENDBRANCH  23  24
ENDBRANCH  22  23
ENDBRANCH  21  22
ENDBRANCH  20  21
ENDBRANCH  19  20
ENDBRANCH   1  19
TORSDOF 14
ENDMDL
MODEL 20
REMARK VINA RESULT:    -6.004     16.974     20.392
REMARK INTER + INTRA:         -12.316
REMARK INTER:                  -8.604
REMARK INTRA:                  -3.712
REMARK UNBOUND:                -1.399
REMARK  Name = cpd199.pdb
REMARK  16 active torsions:
REMARK  status: ('A' for Active; 'I' for Inactive)
REMARK    1  A    between atoms: C_1  and  N_2
REMARK    2  A    between atoms: N_2  and  C_3
REMARK    3  A    between atoms: N_2  and  C_4
REMARK    4  A    between atoms: C_7  and  C_8
REMARK    5  A    between atoms: C_8  and  C_9
REMARK    6  A    between atoms: N_11  and  C_12
REMARK    7  A    between atoms: C_12  and  C_13
REMARK    8  A    between atoms: C_13  and  C_14
REMARK    9  A    between atoms: C_14  and  C_15
REMARK   10  A    between atoms: C_15  and  C_16
REMARK   11  A    between atoms: C_16  and  C_17
REMARK   12  A    between atoms: C_17  and  C_18
REMARK   13  A    between atoms: C_18  and  C_19
REMARK   14  A    between atoms: C_19  and  C_20
REMARK   15  A    between atoms: C_20  and  N_21
REMARK   16  A    between atoms: N_21  and  C_22
REMARK                            x       y       z     vdW  Elec       q    Type
REMARK                         _______ _______ _______ _____ _____    ______ ____
ROOT
ATOM      1  C   UNL     1      45.537 -18.544 -39.792  0.00  0.00    -0.053 C 
ENDROOT
BRANCH   1   2
ATOM      2  C   UNL     1      46.312 -19.588 -38.990  0.00  0.00    -0.052 C 
BRANCH   2   3
ATOM      3  C   UNL     1      47.279 -18.951 -37.992  0.00  0.00    -0.037 C 
BRANCH   3   4
ATOM      4  C   UNL     1      46.706 -17.677 -37.369  0.00  0.00    +0.012 C 
BRANCH   4   7
ATOM      5  C   UNL     1      46.555 -18.184 -34.876  0.00  0.00    +0.217 C 
ATOM      6  O   UNL     1      47.046 -17.935 -33.772  0.00  0.00    -0.275 OA
ATOM      7  N   UNL     1      47.066 -17.549 -35.969  0.00  0.00    -0.315 N 
ATOM      8  H   UNL     1      47.789 -16.907 -35.780  0.00  0.00    +0.000 HD
BRANCH   5   9
ATOM      9  C   UNL     1      45.406 -19.168 -35.027  0.00  0.00    +0.049 C 
BRANCH   9  13
ATOM     10  C   UNL     1      41.465 -17.343 -34.467  0.00  0.00    +0.029 A 
ATOM     11  C   UNL     1      41.970 -17.662 -35.740  0.00  0.00    -0.040 A 
ATOM     12  C   UNL     1      43.230 -18.253 -35.923  0.00  0.00    -0.056 A 
ATOM     13  C   UNL     1      44.043 -18.551 -34.830  0.00  0.00    -0.039 A 
ATOM     14  C   UNL     1      43.538 -18.302 -33.552  0.00  0.00    -0.056 A 
ATOM     15  C   UNL     1      42.278 -17.708 -33.382  0.00  0.00    -0.040 A 
BRANCH  10  17
ATOM     16  C   UNL     1      39.353 -16.544 -35.457  0.00  0.00    +0.000 C 
ATOM     17  N   UNL     1      40.212 -16.742 -34.291  0.00  0.00    -0.336 N 
ATOM     18  C   UNL     1      39.516 -16.912 -33.018  0.00  0.00    +0.000 C 
ENDBRANCH  10  17
ENDBRANCH   9  13
ENDBRANCH   5   9
ENDBRANCH   4   7
ENDBRANCH   3   4
ENDBRANCH   2   3
ENDBRANCH   1   2
BRANCH   1  19
ATOM     19  C   UNL     1      44.027 -18.746 -39.629  0.00  0.00    -0.053 C 
BRANCH  19  20
ATOM     20  C   UNL     1      43.686 -20.151 -39.121  0.00  0.00    -0.053 C 
BRANCH  20  21
ATOM     21  C   UNL     1      42.187 -20.384 -38.897  0.00  0.00    -0.052 C 
BRANCH  21  22
ATOM     22  C   UNL     1      41.801 -21.856 -38.676  0.00  0.00    -0.040 C 
BRANCH  22  23
ATOM     23  C   UNL     1      40.551 -22.050 -37.815  0.00  0.00    -0.004 C 
BRANCH  23  24
ATOM     24  N   UNL     1      40.225 -20.923 -36.937  0.00  0.00    -0.311 N 
ATOM     25  H   UNL     1      39.369 -20.500 -37.296  0.00  0.00    +0.000 HD
ATOM     26  H   UNL     1      41.060 -20.337 -36.962  0.00  0.00    +0.000 HD
BRANCH  24  27
ATOM     27  C   UNL     1      40.012 -21.189 -35.500  0.00  0.00    +0.020 C 
ATOM     28  C   UNL     1      41.374 -21.215 -34.760  0.00  0.00    -0.032 C 
ATOM     29  C   UNL     1      41.188 -21.609 -33.282  0.00  0.00    -0.039 C 
ATOM     30  C   UNL     1      40.575 -23.016 -33.206  0.00  0.00    -0.047 C 
ATOM     31  C   UNL     1      39.211 -23.029 -33.913  0.00  0.00    -0.039 C 
ATOM     32  C   UNL     1      38.273 -22.028 -33.225  0.00  0.00    -0.047 C 
ATOM     33  C   UNL     1      38.871 -20.616 -33.297  0.00  0.00    -0.039 C 
ATOM     34  C   UNL     1      40.243 -20.606 -32.602  0.00  0.00    -0.047 C 
ATOM     35  C   UNL     1      39.048 -20.215 -34.771  0.00  0.00    -0.032 C 
ATOM     36  C   UNL     1      39.402 -22.621 -35.384  0.00  0.00    -0.032 C 
ENDBRANCH  24  27
ENDBRANCH  23  24
ENDBRANCH  22  23
ENDBRANCH  21  22
ENDBRANCH  20  21
ENDBRANCH  19  20
ENDBRANCH   1  19
TORSDOF 14
ENDMDL
