REMARK  Name = cpd199.pdb
REMARK  16 active torsions:
REMARK  status: ('A' for Active; 'I' for Inactive)
REMARK    1  A    between atoms: C_1  and  N_2
REMARK    2  A    between atoms: N_2  and  C_3
REMARK    3  A    between atoms: N_2  and  C_4
REMARK    4  A    between atoms: C_7  and  C_8
REMARK    5  A    between atoms: C_8  and  C_9
REMARK    6  A    between atoms: N_11  and  C_12
REMARK    7  A    between atoms: C_12  and  C_13
REMARK    8  A    between atoms: C_13  and  C_14
REMARK    9  A    between atoms: C_14  and  C_15
REMARK   10  A    between atoms: C_15  and  C_16
REMARK   11  A    between atoms: C_16  and  C_17
REMARK   12  A    between atoms: C_17  and  C_18
REMARK   13  A    between atoms: C_18  and  C_19
REMARK   14  A    between atoms: C_19  and  C_20
REMARK   15  A    between atoms: C_20  and  N_21
REMARK   16  A    between atoms: N_21  and  C_22
REMARK                            x       y       z     vdW  Elec       q    Type
REMARK                         _______ _______ _______ _____ _____    ______ ____
ROOT
ATOM      1  C   UNL     1      -1.977   0.348   2.059  0.00  0.00    -0.053 C 
ENDROOT
BRANCH   1   2
ATOM      2  C   UNL     1      -1.084  -0.830   1.670  0.00  0.00    -0.052 C 
BRANCH   2   3
ATOM      3  C   UNL     1       0.382  -0.587   2.028  0.00  0.00    -0.037 C 
BRANCH   3   4
ATOM      4  C   UNL     1       1.284  -1.736   1.575  0.00  0.00    +0.012 C 
BRANCH   4   7
ATOM      5  C   UNL     1       0.763  -4.187   2.041  0.00  0.00    +0.217 C 
ATOM      6  O   UNL     1       0.705  -5.048   2.922  0.00  0.00    -0.275 OA
ATOM      7  N   UNL     1       1.110  -2.918   2.399  0.00  0.00    -0.315 N 
ATOM      8  H   UNL     1       1.266  -2.783   3.362  0.00  0.00    +0.000 HD
BRANCH   5   9
ATOM      9  C   UNL     1       0.452  -4.518   0.590  0.00  0.00    +0.049 C 
BRANCH   9  13
ATOM     10  C   UNL     1      -3.574  -3.332  -0.659  0.00  0.00    +0.029 A 
ATOM     11  C   UNL     1      -2.441  -3.093  -1.456  0.00  0.00    -0.040 A 
ATOM     12  C   UNL     1      -1.149  -3.478  -1.062  0.00  0.00    -0.056 A 
ATOM     13  C   UNL     1      -0.938  -4.122   0.157  0.00  0.00    -0.039 A 
ATOM     14  C   UNL     1      -2.055  -4.427   0.937  0.00  0.00    -0.056 A 
ATOM     15  C   UNL     1      -3.340  -4.035   0.534  0.00  0.00    -0.040 A 
BRANCH  10  17
ATOM     16  C   UNL     1      -5.932  -2.937  -0.058  0.00  0.00    +0.000 C 
ATOM     17  N   UNL     1      -4.859  -2.935  -1.051  0.00  0.00    -0.336 N 
ATOM     18  C   UNL     1      -5.003  -1.963  -2.132  0.00  0.00    +0.000 C 
ENDBRANCH  10  17
ENDBRANCH   9  13
ENDBRANCH   5   9
ENDBRANCH   4   7
ENDBRANCH   3   4
ENDBRANCH   2   3
ENDBRANCH   1   2
BRANCH   1  19
ATOM     19  C   UNL     1      -3.399   0.150   1.524  0.00  0.00    -0.053 C 
BRANCH  19  20
ATOM     20  C   UNL     1      -4.286   1.373   1.781  0.00  0.00    -0.053 C 
BRANCH  20  21
ATOM     21  C   UNL     1      -5.022   1.880   0.534  0.00  0.00    -0.052 C 
BRANCH  21  22
ATOM     22  C   UNL     1      -4.216   2.875  -0.316  0.00  0.00    -0.040 C 
BRANCH  22  23
ATOM     23  C   UNL     1      -3.087   2.233  -1.124  0.00  0.00    -0.004 C 
BRANCH  23  24
ATOM     24  N   UNL     1      -2.395   3.138  -2.045  0.00  0.00    -0.311 N 
ATOM     25  H   UNL     1      -3.111   3.623  -2.585  0.00  0.00    +0.000 HD
ATOM     26  H   UNL     1      -1.771   2.528  -2.573  0.00  0.00    +0.000 HD
BRANCH  24  27
ATOM     27  C   UNL     1      -1.501   4.169  -1.480  0.00  0.00    +0.020 C 
ATOM     28  C   UNL     1      -2.265   5.511  -1.338  0.00  0.00    -0.032 C 
ATOM     29  C   UNL     1      -1.321   6.632  -0.863  0.00  0.00    -0.039 C 
ATOM     30  C   UNL     1      -0.202   6.825  -1.898  0.00  0.00    -0.047 C 
ATOM     31  C   UNL     1       0.594   5.521  -2.055  0.00  0.00    -0.039 C 
ATOM     32  C   UNL     1       1.213   5.138  -0.703  0.00  0.00    -0.047 C 
ATOM     33  C   UNL     1       0.105   4.938   0.341  0.00  0.00    -0.039 C 
ATOM     34  C   UNL     1      -0.701   6.239   0.487  0.00  0.00    -0.047 C 
ATOM     35  C   UNL     1      -0.833   3.811  -0.125  0.00  0.00    -0.032 C 
ATOM     36  C   UNL     1      -0.357   4.402  -2.515  0.00  0.00    -0.032 C 
ENDBRANCH  24  27
ENDBRANCH  23  24
ENDBRANCH  22  23
ENDBRANCH  21  22
ENDBRANCH  20  21
ENDBRANCH  19  20
ENDBRANCH   1  19
TORSDOF 14
