@<TRIPOS>MOLECULE
*****
 33 36 0 0 0
SMALL
GASTEIGER

@<TRIPOS>ATOM
      1 C          -4.1185   -0.6607    0.0000 C.3     1  UNL1        0.1122
      2 N          -3.1185   -0.6607    0.0000 N.pl3   1  UNL1       -0.3041
      3 C          -2.6185    0.2053    0.0000 C.3     1  UNL1        0.1122
      4 C          -2.6185   -1.5267    0.0000 C.ar    1  UNL1        0.0479
      5 C          -3.1185   -2.3927    0.0000 C.ar    1  UNL1        0.0142
      6 C          -2.6185   -3.2588    0.0000 C.ar    1  UNL1       -0.0025
      7 C          -1.6185   -3.2588    0.0000 C.ar    1  UNL1       -0.0129
      8 C          -1.1185   -4.1248    0.0000 C.3     1  UNL1        0.1131
      9 C          -0.1185   -4.1248    0.0000 C.2     1  UNL1        0.2458
     10 O           0.3815   -3.2588    0.0000 O.2     1  UNL1       -0.2730
     11 N           0.8677    0.5010    0.0000 N.am    1  UNL1       -0.2051
     12 C           0.0000    0.0000    0.0000 C.3     1  UNL1        0.1152
     13 C          -0.8677    0.5010    0.0000 C.3     1  UNL1        0.0234
     14 C          -1.7354    0.0000    0.0000 C.3     1  UNL1        0.0018
     15 C          -2.6031    0.5010    0.0000 C.3     1  UNL1        0.0001
     16 C          -3.4708    0.0000    0.0000 C.3     1  UNL1        0.0000
     17 C          -4.3385    0.5010    0.0000 C.3     1  UNL1        0.0000
     18 C          -5.2062    0.0000    0.0000 C.3     1  UNL1        0.0015
     19 C          -6.0739    0.5010    0.0000 C.3     1  UNL1        0.0188
     20 C          -6.9415    0.0000    0.0000 C.3     1  UNL1        0.0886
     21 N          -6.9415   -1.0019    0.0000 N.3     1  UNL1       -0.2208
     22 C           1.3815    3.6694    0.0000 C.3     1  UNL1        0.0594
     23 C           1.1227    4.6354    0.0000 C.3     1  UNL1        0.0161
     24 C           0.1567    4.8942    0.0000 C.3     1  UNL1        0.0013
     25 C           0.8094    5.3043    0.0000 C.3     1  UNL1        0.0001
     26 C           1.5370    5.0497    0.0000 C.3     1  UNL1        0.0013
     27 C           0.0949    4.6633    0.0000 C.3     1  UNL1        0.0001
     28 C          -0.2916    3.2211    0.0000 C.3     1  UNL1        0.0013
     29 C          -0.5504    4.1871    0.0000 C.3     1  UNL1        0.0001
     30 C           0.6744    2.9623    0.0000 C.3     1  UNL1        0.0161
     31 C           1.7916    4.3221    0.0000 C.3     1  UNL1        0.0161
     32 C          -1.1185   -2.3927    0.0000 C.ar    1  UNL1       -0.0025
     33 C          -1.6185   -1.5267    0.0000 C.ar    1  UNL1        0.0142
@<TRIPOS>BOND
     1     1     2    1
     2     2     3    1
     3     2     4    1
     4     4     5   ar
     5     5     6   ar
     6     6     7   ar
     7     7     8    1
     8     8     9    1
     9     9    10    2
    10     9    11   am
    11    11    12    1
    12    12    13    1
    13    13    14    1
    14    14    15    1
    15    15    16    1
    16    16    17    1
    17    17    18    1
    18    18    19    1
    19    19    20    1
    20    20    21    1
    21    21    22    1
    22    22    23    1
    23    23    24    1
    24    24    25    1
    25    25    26    1
    26    26    27    1
    27    27    28    1
    28    28    29    1
    29    24    29    1
    30    28    30    1
    31    22    30    1
    32    26    31    1
    33    22    31    1
    34     7    32   ar
    35    32    33   ar
    36     4    33   ar
