@<TRIPOS>MOLECULE
*****
 32 35 0 0 0
SMALL
GASTEIGER

@<TRIPOS>ATOM
      1 C          -2.8100    3.6446    0.0000 C.3     1  UNL1        0.0305
      2 C          -2.1557    2.9185    0.0000 C.2     1  UNL1       -0.0255
      3 C          -1.1997    3.1221    0.0000 C.2     1  UNL1        0.0289
      4 C          -0.8980    4.0519    0.0000 C.3     1  UNL1        0.0355
      5 C          -0.5453    2.3960    0.0000 C.2     1  UNL1        0.2608
      6 O           0.4107    2.5997    0.0000 O.2     1  UNL1       -0.2687
      7 N          -0.8470    1.4663    0.0000 N.am    1  UNL1       -0.1966
      8 C          -0.0003    0.9779    0.0000 C.3     1  UNL1        0.1471
      9 C           0.8459    1.4671    0.0000 C.2     1  UNL1       -0.0109
     10 C           1.6924    0.9784    0.0000 C.2     1  UNL1       -0.0473
     11 C           2.5392    1.4676    0.0000 C.3     1  UNL1        0.0217
     12 C           3.3863    0.9789    0.0000 C.3     1  UNL1        0.0044
     13 C           3.3866    0.0010    0.0000 C.3     1  UNL1        0.0012
     14 C           2.5398   -0.4882    0.0000 C.3     1  UNL1        0.0035
     15 C           2.5401   -1.4656    0.0000 C.3     1  UNL1        0.0006
     16 C           3.3872   -1.9543    0.0000 C.3     1  UNL1        0.0038
     17 C           4.2340   -1.4651    0.0000 C.3     1  UNL1        0.0164
     18 C           4.2343   -2.4692    0.0000 C.3     1  UNL1        0.0041
     19 C           5.0811   -1.9538    0.0000 C.2     1  UNL1       -0.0348
     20 C           5.0814   -2.9308    0.0000 C.3     1  UNL1        0.0759
     21 C           4.2354   -3.4195    0.0000 C.3     1  UNL1        0.0219
     22 N           5.9276   -3.4190    0.0000 N.3     1  UNL1       -0.2682
     23 C           5.9278   -4.3959    0.0000 C.3     1  UNL1        0.0899
     24 C           6.7735   -2.9303    0.0000 C.3     1  UNL1        0.0899
     25 C           5.9267   -1.4646    0.0000 C.2     1  UNL1       -0.0333
     26 C           5.9264   -0.4873    0.0000 C.3     1  UNL1        0.0257
     27 C           4.2337   -0.4878    0.0000 C.3     1  UNL1        0.0078
     28 C           1.6927    0.0005    0.0000 C.3     1  UNL1        0.0174
     29 C           1.6930   -0.9995    0.0000 C.3     1  UNL1        0.0041
     30 C           0.8465   -0.4887    0.0000 C.3     1  UNL1        0.0388
     31 C           0.0000    0.0000    0.0000 C.3     1  UNL1        0.1762
     32 O          -0.8660   -0.5001    0.0000 O.3     1  UNL1       -0.2209
@<TRIPOS>BOND
     1     1     2    1
     2     2     3    2
     3     3     4    1
     4     3     5    1
     5     5     6    2
     6     5     7   am
     7     7     8    1
     8     8     9    1
     9     9    10    2
    10    10    11    1
    11    11    12    1
    12    12    13    1
    13    13    14    1
    14    14    15    1
    15    15    16    1
    16    16    17    1
    17    17    18    1
    18    17    19    1
    19    19    20    1
    20    20    21    1
    21    20    22    1
    22    22    23    1
    23    22    24    1
    24    19    25    2
    25    25    26    1
    26    26    27    1
    27    13    27    1
    28    17    27    1
    29    14    28    1
    30    10    28    1
    31    28    29    1
    32    28    30    1
    33    30    31    1
    34     8    31    1
    35    31    32    1
