MODEL 1
REMARK VINA RESULT:    -7.850      0.000      0.000
REMARK INTER + INTRA:         -10.655
REMARK INTER:                  -9.916
REMARK INTRA:                  -0.740
REMARK UNBOUND:                -0.740
REMARK  Name = cpd209.pdb
REMARK  12 active torsions:
REMARK  status: ('A' for Active; 'I' for Inactive)
REMARK    1  A    between atoms: C_1  and  C_2
REMARK    2  A    between atoms: C_3  and  C_4
REMARK    3  A    between atoms: C_3  and  C_5
REMARK    4  A    between atoms: N_7  and  C_8
REMARK    5  A    between atoms: C_17  and  C_18
REMARK    6  A    between atoms: C_19  and  C_20
REMARK    7  A    between atoms: C_20  and  C_21
REMARK    8  A    between atoms: C_20  and  N_22
REMARK    9  A    between atoms: N_22  and  C_23
REMARK   10  A    between atoms: N_22  and  C_24
REMARK   11  A    between atoms: C_28  and  C_29
REMARK   12  A    between atoms: C_31  and  O_32
REMARK                            x       y       z     vdW  Elec       q    Type
REMARK                         _______ _______ _______ _____ _____    ______ ____
ROOT
ATOM      1  C   UNL     1      42.013 -20.720 -35.416  0.00  0.00    +0.068 C 
ATOM      2  C   UNL     1      41.358 -21.390 -36.586  0.00  0.00    -0.062 C 
ATOM      3  C   UNL     1      41.453 -20.956 -37.857  0.00  0.00    -0.065 C 
ATOM      4  C   UNL     1      40.835 -21.742 -38.993  0.00  0.00    -0.031 C 
ATOM      5  C   UNL     1      41.848 -22.050 -40.101  0.00  0.00    -0.046 C 
ATOM      6  C   UNL     1      42.590 -20.780 -40.570  0.00  0.00    -0.033 C 
ATOM      7  C   UNL     1      43.267 -20.072 -39.373  0.00  0.00    -0.029 C 
ATOM      8  C   UNL     1      44.437 -20.925 -38.839  0.00  0.00    -0.048 C 
ATOM      9  C   UNL     1      45.192 -21.755 -39.877  0.00  0.00    -0.043 C 
ATOM     10  C   UNL     1      45.059 -21.314 -41.341  0.00  0.00    -0.006 C 
ATOM     11  C   UNL     1      45.653 -22.422 -42.238  0.00  0.00    -0.056 C 
ATOM     12  C   UNL     1      45.731 -19.987 -41.679  0.00  0.00    -0.051 C 
ATOM     13  C   UNL     1      44.925 -19.219 -42.429  0.00  0.00    -0.082 C 
ATOM     14  C   UNL     1      43.623 -19.870 -42.723  0.00  0.00    -0.031 C 
ATOM     15  C   UNL     1      43.568 -21.067 -41.745  0.00  0.00    -0.025 C 
ATOM     16  C   UNL     1      42.224 -19.690 -38.251  0.00  0.00    -0.006 C 
ATOM     17  C   UNL     1      41.220 -18.641 -38.808  0.00  0.00    -0.055 C 
ATOM     18  C   UNL     1      42.919 -18.985 -37.042  0.00  0.00    -0.015 C 
ATOM     19  C   UNL     1      43.248 -19.892 -35.856  0.00  0.00    +0.078 C 
ENDROOT
BRANCH   1  22
ATOM     20  C   UNL     1      40.940 -19.777 -33.410  0.00  0.00    +0.240 C 
ATOM     21  O   UNL     1      41.756 -20.280 -32.646  0.00  0.00    -0.271 OA
ATOM     22  N   UNL     1      40.977 -19.937 -34.770  0.00  0.00    -0.303 N 
ATOM     23  H   UNL     1      40.285 -19.509 -35.323  0.00  0.00    +0.000 HD
BRANCH  20  26
ATOM     24  C   UNL     1      39.362 -16.497 -32.075  0.00  0.00    -0.046 C 
ATOM     25  C   UNL     1      40.246 -17.600 -32.561  0.00  0.00    -0.079 C 
ATOM     26  C   UNL     1      39.878 -18.843 -32.931  0.00  0.00    +0.007 C 
ATOM     27  C   UNL     1      38.494 -19.409 -32.980  0.00  0.00    -0.035 C 
ENDBRANCH  20  26
ENDBRANCH   1  22
BRANCH  12  28
ATOM     28  C   UNL     1      47.172 -19.662 -41.315  0.00  0.00    +0.029 C 
ATOM     29  C   UNL     1      47.276 -18.139 -41.112  0.00  0.00    -0.046 C 
BRANCH  28  30
ATOM     30  N   UNL     1      48.144 -20.141 -42.339  0.00  0.00    -0.302 N 
ATOM     31  C   UNL     1      49.058 -19.083 -42.784  0.00  0.00    -0.012 C 
ATOM     32  C   UNL     1      48.945 -21.265 -41.838  0.00  0.00    -0.012 C 
ATOM     33  H   UNL     1      47.579 -20.444 -43.131  0.00  0.00    +0.000 HD
ENDBRANCH  28  30
ENDBRANCH  12  28
BRANCH  19  34
ATOM     34  O   UNL     1      43.793 -19.075 -34.813  0.00  0.00    -0.390 OA
ATOM     35  H   UNL     1      44.759 -19.168 -34.802  0.00  0.00    +0.000 HD
ENDBRANCH  19  34
TORSDOF 5
ENDMDL
MODEL 2
REMARK VINA RESULT:    -7.487     18.193     20.873
REMARK INTER + INTRA:         -10.196
REMARK INTER:                  -9.220
REMARK INTRA:                  -0.976
REMARK UNBOUND:                -0.740
REMARK  Name = cpd209.pdb
REMARK  12 active torsions:
REMARK  status: ('A' for Active; 'I' for Inactive)
REMARK    1  A    between atoms: C_1  and  C_2
REMARK    2  A    between atoms: C_3  and  C_4
REMARK    3  A    between atoms: C_3  and  C_5
REMARK    4  A    between atoms: N_7  and  C_8
REMARK    5  A    between atoms: C_17  and  C_18
REMARK    6  A    between atoms: C_19  and  C_20
REMARK    7  A    between atoms: C_20  and  C_21
REMARK    8  A    between atoms: C_20  and  N_22
REMARK    9  A    between atoms: N_22  and  C_23
REMARK   10  A    between atoms: N_22  and  C_24
REMARK   11  A    between atoms: C_28  and  C_29
REMARK   12  A    between atoms: C_31  and  O_32
REMARK                            x       y       z     vdW  Elec       q    Type
REMARK                         _______ _______ _______ _____ _____    ______ ____
ROOT
ATOM      1  C   UNL     1      35.423 -35.509 -31.675  0.00  0.00    +0.068 C 
ATOM      2  C   UNL     1      34.199 -36.373 -31.642  0.00  0.00    -0.062 C 
ATOM      3  C   UNL     1      33.169 -36.193 -30.795  0.00  0.00    -0.065 C 
ATOM      4  C   UNL     1      31.929 -37.057 -30.888  0.00  0.00    -0.031 C 
ATOM      5  C   UNL     1      30.650 -36.220 -31.004  0.00  0.00    -0.046 C 
ATOM      6  C   UNL     1      30.564 -35.145 -29.899  0.00  0.00    -0.033 C 
ATOM      7  C   UNL     1      31.823 -34.247 -29.915  0.00  0.00    -0.029 C 
ATOM      8  C   UNL     1      31.841 -33.372 -31.187  0.00  0.00    -0.048 C 
ATOM      9  C   UNL     1      30.477 -32.938 -31.722  0.00  0.00    -0.043 C 
ATOM     10  C   UNL     1      29.304 -32.979 -30.734  0.00  0.00    -0.006 C 
ATOM     11  C   UNL     1      27.994 -32.777 -31.526  0.00  0.00    -0.056 C 
ATOM     12  C   UNL     1      29.370 -31.949 -29.611  0.00  0.00    -0.051 C 
ATOM     13  C   UNL     1      29.069 -32.510 -28.428  0.00  0.00    -0.082 C 
ATOM     14  C   UNL     1      28.754 -33.956 -28.543  0.00  0.00    -0.031 C 
ATOM     15  C   UNL     1      29.236 -34.338 -29.962  0.00  0.00    -0.025 C 
ATOM     16  C   UNL     1      33.146 -35.089 -29.730  0.00  0.00    -0.006 C 
ATOM     17  C   UNL     1      33.153 -35.747 -28.322  0.00  0.00    -0.055 C 
ATOM     18  C   UNL     1      34.413 -34.174 -29.758  0.00  0.00    -0.015 C 
ATOM     19  C   UNL     1      35.135 -34.096 -31.104  0.00  0.00    +0.078 C 
ENDROOT
BRANCH   1  22
ATOM     20  C   UNL     1      37.769 -36.166 -31.315  0.00  0.00    +0.240 C 
ATOM     21  O   UNL     1      38.179 -35.501 -32.260  0.00  0.00    -0.271 OA
ATOM     22  N   UNL     1      36.450 -36.238 -30.955  0.00  0.00    -0.303 N 
ATOM     23  H   UNL     1      36.192 -36.798 -30.188  0.00  0.00    +0.000 HD
BRANCH  20  26
ATOM     24  C   UNL     1      41.106 -37.604 -29.962  0.00  0.00    -0.046 C 
ATOM     25  C   UNL     1      39.999 -36.962 -30.735  0.00  0.00    -0.079 C 
ATOM     26  C   UNL     1      38.698 -36.883 -30.391  0.00  0.00    +0.007 C 
ATOM     27  C   UNL     1      38.051 -37.385 -29.139  0.00  0.00    -0.035 C 
ENDBRANCH  20  26
ENDBRANCH   1  22
BRANCH  12  28
ATOM     28  C   UNL     1      29.612 -30.466 -29.848  0.00  0.00    +0.029 C 
ATOM     29  C   UNL     1      30.704 -30.003 -28.864  0.00  0.00    -0.046 C 
BRANCH  28  30
ATOM     30  N   UNL     1      28.372 -29.652 -29.706  0.00  0.00    -0.302 N 
ATOM     31  C   UNL     1      28.394 -28.799 -28.512  0.00  0.00    -0.012 C 
ATOM     32  C   UNL     1      28.148 -28.800 -30.880  0.00  0.00    -0.012 C 
ATOM     33  H   UNL     1      27.612 -30.326 -29.616  0.00  0.00    +0.000 HD
ENDBRANCH  28  30
ENDBRANCH  12  28
BRANCH  19  34
ATOM     34  O   UNL     1      36.310 -33.296 -30.929  0.00  0.00    -0.390 OA
ATOM     35  H   UNL     1      36.699 -33.098 -31.795  0.00  0.00    +0.000 HD
ENDBRANCH  19  34
TORSDOF 5
ENDMDL
MODEL 3
REMARK VINA RESULT:    -7.260     18.055     20.020
REMARK INTER + INTRA:          -9.909
REMARK INTER:                  -8.866
REMARK INTRA:                  -1.043
REMARK UNBOUND:                -0.740
REMARK  Name = cpd209.pdb
REMARK  12 active torsions:
REMARK  status: ('A' for Active; 'I' for Inactive)
REMARK    1  A    between atoms: C_1  and  C_2
REMARK    2  A    between atoms: C_3  and  C_4
REMARK    3  A    between atoms: C_3  and  C_5
REMARK    4  A    between atoms: N_7  and  C_8
REMARK    5  A    between atoms: C_17  and  C_18
REMARK    6  A    between atoms: C_19  and  C_20
REMARK    7  A    between atoms: C_20  and  C_21
REMARK    8  A    between atoms: C_20  and  N_22
REMARK    9  A    between atoms: N_22  and  C_23
REMARK   10  A    between atoms: N_22  and  C_24
REMARK   11  A    between atoms: C_28  and  C_29
REMARK   12  A    between atoms: C_31  and  O_32
REMARK                            x       y       z     vdW  Elec       q    Type
REMARK                         _______ _______ _______ _____ _____    ______ ____
ROOT
ATOM      1  C   UNL     1      30.964 -32.300 -30.120  0.00  0.00    +0.068 C 
ATOM      2  C   UNL     1      30.513 -33.677 -29.735  0.00  0.00    -0.062 C 
ATOM      3  C   UNL     1      31.063 -34.811 -30.208  0.00  0.00    -0.065 C 
ATOM      4  C   UNL     1      30.608 -36.163 -29.699  0.00  0.00    -0.031 C 
ATOM      5  C   UNL     1      31.779 -37.014 -29.196  0.00  0.00    -0.046 C 
ATOM      6  C   UNL     1      32.914 -37.104 -30.239  0.00  0.00    -0.033 C 
ATOM      7  C   UNL     1      33.386 -35.690 -30.653  0.00  0.00    -0.029 C 
ATOM      8  C   UNL     1      34.111 -35.003 -29.476  0.00  0.00    -0.048 C 
ATOM      9  C   UNL     1      34.893 -35.924 -28.539  0.00  0.00    -0.043 C 
ATOM     10  C   UNL     1      35.285 -37.299 -29.094  0.00  0.00    -0.006 C 
ATOM     11  C   UNL     1      35.810 -38.163 -27.927  0.00  0.00    -0.056 C 
ATOM     12  C   UNL     1      36.333 -37.274 -30.203  0.00  0.00    -0.051 C 
ATOM     13  C   UNL     1      35.984 -38.088 -31.211  0.00  0.00    -0.082 C 
ATOM     14  C   UNL     1      34.696 -38.785 -30.966  0.00  0.00    -0.031 C 
ATOM     15  C   UNL     1      34.076 -38.025 -29.770  0.00  0.00    -0.025 C 
ATOM     16  C   UNL     1      32.202 -34.823 -31.235  0.00  0.00    -0.006 C 
ATOM     17  C   UNL     1      31.686 -35.464 -32.554  0.00  0.00    -0.055 C 
ATOM     18  C   UNL     1      32.687 -33.394 -31.639  0.00  0.00    -0.015 C 
ATOM     19  C   UNL     1      32.438 -32.299 -30.601  0.00  0.00    +0.078 C 
ENDROOT
BRANCH   1  22
ATOM     20  C   UNL     1      29.670 -30.510 -31.212  0.00  0.00    +0.240 C 
ATOM     21  O   UNL     1      30.114 -29.637 -30.474  0.00  0.00    -0.271 OA
ATOM     22  N   UNL     1      30.018 -31.831 -31.116  0.00  0.00    -0.303 N 
ATOM     23  H   UNL     1      29.617 -32.479 -31.738  0.00  0.00    +0.000 HD
BRANCH  20  26
ATOM     24  C   UNL     1      27.837 -28.351 -33.859  0.00  0.00    -0.046 C 
ATOM     25  C   UNL     1      28.648 -28.899 -32.729  0.00  0.00    -0.079 C 
ATOM     26  C   UNL     1      28.781 -30.191 -32.368  0.00  0.00    +0.007 C 
ATOM     27  C   UNL     1      28.180 -31.392 -33.029  0.00  0.00    -0.035 C 
ENDBRANCH  20  26
ENDBRANCH   1  22
BRANCH  12  28
ATOM     28  C   UNL     1      37.651 -36.521 -30.093  0.00  0.00    +0.029 C 
ATOM     29  C   UNL     1      37.622 -35.367 -31.111  0.00  0.00    -0.046 C 
BRANCH  28  30
ATOM     30  N   UNL     1      38.834 -37.402 -30.303  0.00  0.00    -0.302 N 
ATOM     31  C   UNL     1      39.914 -36.728 -31.033  0.00  0.00    -0.012 C 
ATOM     32  C   UNL     1      39.373 -37.895 -29.029  0.00  0.00    -0.012 C 
ATOM     33  H   UNL     1      38.496 -38.185 -30.862  0.00  0.00    +0.000 HD
ENDBRANCH  28  30
ENDBRANCH  12  28
BRANCH  19  34
ATOM     34  O   UNL     1      32.858 -31.051 -31.166  0.00  0.00    -0.390 OA
ATOM     35  H   UNL     1      32.197 -30.748 -31.808  0.00  0.00    +0.000 HD
ENDBRANCH  19  34
TORSDOF 5
ENDMDL
MODEL 4
REMARK VINA RESULT:    -7.231      2.769      9.566
REMARK INTER + INTRA:          -9.872
REMARK INTER:                  -8.965
REMARK INTRA:                  -0.907
REMARK UNBOUND:                -0.740
REMARK  Name = cpd209.pdb
REMARK  12 active torsions:
REMARK  status: ('A' for Active; 'I' for Inactive)
REMARK    1  A    between atoms: C_1  and  C_2
REMARK    2  A    between atoms: C_3  and  C_4
REMARK    3  A    between atoms: C_3  and  C_5
REMARK    4  A    between atoms: N_7  and  C_8
REMARK    5  A    between atoms: C_17  and  C_18
REMARK    6  A    between atoms: C_19  and  C_20
REMARK    7  A    between atoms: C_20  and  C_21
REMARK    8  A    between atoms: C_20  and  N_22
REMARK    9  A    between atoms: N_22  and  C_23
REMARK   10  A    between atoms: N_22  and  C_24
REMARK   11  A    between atoms: C_28  and  C_29
REMARK   12  A    between atoms: C_31  and  O_32
REMARK                            x       y       z     vdW  Elec       q    Type
REMARK                         _______ _______ _______ _____ _____    ______ ____
ROOT
ATOM      1  C   UNL     1      41.113 -20.816 -39.351  0.00  0.00    +0.068 C 
ATOM      2  C   UNL     1      41.127 -21.908 -38.324  0.00  0.00    -0.062 C 
ATOM      3  C   UNL     1      41.215 -21.697 -36.998  0.00  0.00    -0.065 C 
ATOM      4  C   UNL     1      41.131 -22.852 -36.022  0.00  0.00    -0.031 C 
ATOM      5  C   UNL     1      40.056 -22.628 -34.953  0.00  0.00    -0.046 C 
ATOM      6  C   UNL     1      40.208 -21.256 -34.263  0.00  0.00    -0.033 C 
ATOM      7  C   UNL     1      40.202 -20.117 -35.310  0.00  0.00    -0.029 C 
ATOM      8  C   UNL     1      38.802 -19.981 -35.946  0.00  0.00    -0.048 C 
ATOM      9  C   UNL     1      37.618 -20.312 -35.038  0.00  0.00    -0.043 C 
ATOM     10  C   UNL     1      37.874 -20.264 -33.526  0.00  0.00    -0.006 C 
ATOM     11  C   UNL     1      36.658 -20.888 -32.807  0.00  0.00    -0.056 C 
ATOM     12  C   UNL     1      38.127 -18.871 -32.957  0.00  0.00    -0.051 C 
ATOM     13  C   UNL     1      39.170 -18.880 -32.113  0.00  0.00    -0.082 C 
ATOM     14  C   UNL     1      39.776 -20.228 -31.964  0.00  0.00    -0.031 C 
ATOM     15  C   UNL     1      39.168 -21.047 -33.126  0.00  0.00    -0.025 C 
ATOM     16  C   UNL     1      41.348 -20.299 -36.381  0.00  0.00    -0.006 C 
ATOM     17  C   UNL     1      42.735 -20.184 -35.687  0.00  0.00    -0.055 C 
ATOM     18  C   UNL     1      41.327 -19.149 -37.440  0.00  0.00    -0.015 C 
ATOM     19  C   UNL     1      40.610 -19.478 -38.749  0.00  0.00    +0.078 C 
ENDROOT
BRANCH   1  22
ATOM     20  C   UNL     1      42.779 -21.306 -41.098  0.00  0.00    +0.240 C 
ATOM     21  O   UNL     1      41.972 -21.898 -41.806  0.00  0.00    -0.271 OA
ATOM     22  N   UNL     1      42.460 -20.751 -39.888  0.00  0.00    -0.303 N 
ATOM     23  H   UNL     1      43.161 -20.295 -39.369  0.00  0.00    +0.000 HD
BRANCH  20  26
ATOM     24  C   UNL     1      46.634 -21.674 -41.285  0.00  0.00    -0.046 C 
ATOM     25  C   UNL     1      45.173 -21.753 -40.981  0.00  0.00    -0.079 C 
ATOM     26  C   UNL     1      44.178 -21.040 -41.546  0.00  0.00    +0.007 C 
ATOM     27  C   UNL     1      44.289 -20.024 -42.640  0.00  0.00    -0.035 C 
ENDBRANCH  20  26
ENDBRANCH   1  22
BRANCH  12  28
ATOM     28  C   UNL     1      37.218 -17.680 -33.225  0.00  0.00    +0.029 C 
ATOM     29  C   UNL     1      38.033 -16.630 -34.002  0.00  0.00    -0.046 C 
BRANCH  28  30
ATOM     30  N   UNL     1      36.643 -17.106 -31.975  0.00  0.00    -0.302 N 
ATOM     31  C   UNL     1      37.210 -15.793 -31.648  0.00  0.00    -0.012 C 
ATOM     32  C   UNL     1      35.184 -16.971 -32.065  0.00  0.00    -0.012 C 
ATOM     33  H   UNL     1      36.886 -17.764 -31.235  0.00  0.00    +0.000 HD
ENDBRANCH  28  30
ENDBRANCH  12  28
BRANCH  19  34
ATOM     34  O   UNL     1      40.762 -18.358 -39.629  0.00  0.00    -0.390 OA
ATOM     35  H   UNL     1      41.599 -18.438 -40.112  0.00  0.00    +0.000 HD
ENDBRANCH  19  34
TORSDOF 5
ENDMDL
MODEL 5
REMARK VINA RESULT:    -7.133      2.995      3.877
REMARK INTER + INTRA:          -9.749
REMARK INTER:                  -8.764
REMARK INTRA:                  -0.985
REMARK UNBOUND:                -0.740
REMARK  Name = cpd209.pdb
REMARK  12 active torsions:
REMARK  status: ('A' for Active; 'I' for Inactive)
REMARK    1  A    between atoms: C_1  and  C_2
REMARK    2  A    between atoms: C_3  and  C_4
REMARK    3  A    between atoms: C_3  and  C_5
REMARK    4  A    between atoms: N_7  and  C_8
REMARK    5  A    between atoms: C_17  and  C_18
REMARK    6  A    between atoms: C_19  and  C_20
REMARK    7  A    between atoms: C_20  and  C_21
REMARK    8  A    between atoms: C_20  and  N_22
REMARK    9  A    between atoms: N_22  and  C_23
REMARK   10  A    between atoms: N_22  and  C_24
REMARK   11  A    between atoms: C_28  and  C_29
REMARK   12  A    between atoms: C_31  and  O_32
REMARK                            x       y       z     vdW  Elec       q    Type
REMARK                         _______ _______ _______ _____ _____    ______ ____
ROOT
ATOM      1  C   UNL     1      43.385 -17.346 -34.623  0.00  0.00    +0.068 C 
ATOM      2  C   UNL     1      42.446 -17.117 -35.769  0.00  0.00    -0.062 C 
ATOM      3  C   UNL     1      42.830 -17.045 -37.057  0.00  0.00    -0.065 C 
ATOM      4  C   UNL     1      41.806 -16.901 -38.164  0.00  0.00    -0.031 C 
ATOM      5  C   UNL     1      41.965 -17.980 -39.241  0.00  0.00    -0.046 C 
ATOM      6  C   UNL     1      43.417 -18.066 -39.759  0.00  0.00    -0.033 C 
ATOM      7  C   UNL     1      44.400 -18.296 -38.587  0.00  0.00    -0.029 C 
ATOM      8  C   UNL     1      44.206 -19.709 -37.995  0.00  0.00    -0.048 C 
ATOM      9  C   UNL     1      43.785 -20.798 -38.982  0.00  0.00    -0.043 C 
ATOM     10  C   UNL     1      44.062 -20.527 -40.466  0.00  0.00    -0.006 C 
ATOM     11  C   UNL     1      43.325 -21.598 -41.301  0.00  0.00    -0.056 C 
ATOM     12  C   UNL     1      45.536 -20.520 -40.857  0.00  0.00    -0.051 C 
ATOM     13  C   UNL     1      45.815 -19.478 -41.655  0.00  0.00    -0.082 C 
ATOM     14  C   UNL     1      44.625 -18.636 -41.937  0.00  0.00    -0.031 C 
ATOM     15  C   UNL     1      43.575 -19.107 -40.903  0.00  0.00    -0.025 C 
ATOM     16  C   UNL     1      44.294 -17.156 -37.500  0.00  0.00    -0.006 C 
ATOM     17  C   UNL     1      44.737 -15.801 -38.121  0.00  0.00    -0.055 C 
ATOM     18  C   UNL     1      45.284 -17.403 -36.316  0.00  0.00    -0.015 C 
ATOM     19  C   UNL     1      44.675 -18.072 -35.083  0.00  0.00    +0.078 C 
ENDROOT
BRANCH   1  22
ATOM     20  C   UNL     1      43.860 -15.896 -32.689  0.00  0.00    +0.240 C 
ATOM     21  O   UNL     1      43.885 -16.832 -31.899  0.00  0.00    -0.271 OA
ATOM     22  N   UNL     1      43.621 -16.043 -34.029  0.00  0.00    -0.303 N 
ATOM     23  H   UNL     1      43.609 -15.245 -34.606  0.00  0.00    +0.000 HD
BRANCH  20  26
ATOM     24  C   UNL     1      44.883 -12.981 -30.346  0.00  0.00    -0.046 C 
ATOM     25  C   UNL     1      44.494 -14.278 -30.979  0.00  0.00    -0.079 C 
ATOM     26  C   UNL     1      44.200 -14.502 -32.276  0.00  0.00    +0.007 C 
ATOM     27  C   UNL     1      44.227 -13.517 -33.402  0.00  0.00    -0.035 C 
ENDBRANCH  20  26
ENDBRANCH   1  22
BRANCH  12  28
ATOM     28  C   UNL     1      46.506 -21.634 -40.489  0.00  0.00    +0.029 C 
ATOM     29  C   UNL     1      47.429 -21.106 -39.375  0.00  0.00    -0.046 C 
BRANCH  28  30
ATOM     30  N   UNL     1      47.289 -22.123 -41.659  0.00  0.00    -0.302 N 
ATOM     31  C   UNL     1      48.451 -22.926 -41.260  0.00  0.00    -0.012 C 
ATOM     32  C   UNL     1      46.460 -22.926 -42.566  0.00  0.00    -0.012 C 
ATOM     33  H   UNL     1      47.616 -21.285 -42.138  0.00  0.00    +0.000 HD
ENDBRANCH  28  30
ENDBRANCH  12  28
BRANCH  19  34
ATOM     34  O   UNL     1      45.688 -18.140 -34.073  0.00  0.00    -0.390 OA
ATOM     35  H   UNL     1      45.275 -18.082 -33.197  0.00  0.00    +0.000 HD
ENDBRANCH  19  34
TORSDOF 5
ENDMDL
MODEL 6
REMARK VINA RESULT:    -7.099     21.466     25.001
REMARK INTER + INTRA:          -9.706
REMARK INTER:                  -8.658
REMARK INTRA:                  -1.047
REMARK UNBOUND:                -0.740
REMARK  Name = cpd209.pdb
REMARK  12 active torsions:
REMARK  status: ('A' for Active; 'I' for Inactive)
REMARK    1  A    between atoms: C_1  and  C_2
REMARK    2  A    between atoms: C_3  and  C_4
REMARK    3  A    between atoms: C_3  and  C_5
REMARK    4  A    between atoms: N_7  and  C_8
REMARK    5  A    between atoms: C_17  and  C_18
REMARK    6  A    between atoms: C_19  and  C_20
REMARK    7  A    between atoms: C_20  and  C_21
REMARK    8  A    between atoms: C_20  and  N_22
REMARK    9  A    between atoms: N_22  and  C_23
REMARK   10  A    between atoms: N_22  and  C_24
REMARK   11  A    between atoms: C_28  and  C_29
REMARK   12  A    between atoms: C_31  and  O_32
REMARK                            x       y       z     vdW  Elec       q    Type
REMARK                         _______ _______ _______ _____ _____    ______ ____
ROOT
ATOM      1  C   UNL     1      35.854 -37.472 -30.582  0.00  0.00    +0.068 C 
ATOM      2  C   UNL     1      35.477 -38.775 -31.220  0.00  0.00    -0.062 C 
ATOM      3  C   UNL     1      35.451 -39.955 -30.571  0.00  0.00    -0.065 C 
ATOM      4  C   UNL     1      34.972 -41.211 -31.267  0.00  0.00    -0.031 C 
ATOM      5  C   UNL     1      33.861 -41.918 -30.482  0.00  0.00    -0.046 C 
ATOM      6  C   UNL     1      34.257 -42.149 -29.008  0.00  0.00    -0.033 C 
ATOM      7  C   UNL     1      34.655 -40.814 -28.336  0.00  0.00    -0.029 C 
ATOM      8  C   UNL     1      33.417 -39.904 -28.177  0.00  0.00    -0.048 C 
ATOM      9  C   UNL     1      32.087 -40.617 -27.937  0.00  0.00    -0.043 C 
ATOM     10  C   UNL     1      32.161 -42.054 -27.404  0.00  0.00    -0.006 C 
ATOM     11  C   UNL     1      30.752 -42.679 -27.493  0.00  0.00    -0.056 C 
ATOM     12  C   UNL     1      32.673 -42.186 -25.973  0.00  0.00    -0.051 C 
ATOM     13  C   UNL     1      33.572 -43.177 -25.875  0.00  0.00    -0.082 C 
ATOM     14  C   UNL     1      33.810 -43.866 -27.169  0.00  0.00    -0.031 C 
ATOM     15  C   UNL     1      33.167 -42.930 -28.220  0.00  0.00    -0.025 C 
ATOM     16  C   UNL     1      35.844 -40.106 -29.096  0.00  0.00    -0.006 C 
ATOM     17  C   UNL     1      37.121 -40.987 -29.002  0.00  0.00    -0.055 C 
ATOM     18  C   UNL     1      36.231 -38.753 -28.416  0.00  0.00    -0.015 C 
ATOM     19  C   UNL     1      35.620 -37.503 -29.049  0.00  0.00    +0.078 C 
ENDROOT
BRANCH   1  22
ATOM     20  C   UNL     1      37.723 -35.948 -31.083  0.00  0.00    +0.240 C 
ATOM     21  O   UNL     1      37.051 -34.941 -30.888  0.00  0.00    -0.271 OA
ATOM     22  N   UNL     1      37.231 -37.220 -30.963  0.00  0.00    -0.303 N 
ATOM     23  H   UNL     1      37.826 -37.984 -31.141  0.00  0.00    +0.000 HD
BRANCH  20  26
ATOM     24  C   UNL     1      41.404 -37.139 -31.326  0.00  0.00    -0.046 C 
ATOM     25  C   UNL     1      39.936 -36.970 -31.104  0.00  0.00    -0.079 C 
ATOM     26  C   UNL     1      39.188 -35.880 -31.365  0.00  0.00    +0.007 C 
ATOM     27  C   UNL     1      39.635 -34.588 -31.973  0.00  0.00    -0.035 C 
ENDBRANCH  20  26
ENDBRANCH   1  22
BRANCH  12  28
ATOM     28  C   UNL     1      32.120 -41.378 -24.808  0.00  0.00    +0.029 C 
ATOM     29  C   UNL     1      33.227 -40.421 -24.330  0.00  0.00    -0.046 C 
BRANCH  28  30
ATOM     30  N   UNL     1      31.628 -42.239 -23.695  0.00  0.00    -0.302 N 
ATOM     31  C   UNL     1      31.968 -41.699 -22.374  0.00  0.00    -0.012 C 
ATOM     32  C   UNL     1      30.173 -42.425 -23.759  0.00  0.00    -0.012 C 
ATOM     33  H   UNL     1      32.097 -43.136 -23.816  0.00  0.00    +0.000 HD
ENDBRANCH  28  30
ENDBRANCH  12  28
BRANCH  19  34
ATOM     34  O   UNL     1      36.146 -36.360 -28.364  0.00  0.00    -0.390 OA
ATOM     35  H   UNL     1      36.333 -36.593 -27.442  0.00  0.00    +0.000 HD
ENDBRANCH  19  34
TORSDOF 5
ENDMDL
MODEL 7
REMARK VINA RESULT:    -7.041     17.626     20.966
REMARK INTER + INTRA:          -9.633
REMARK INTER:                  -8.706
REMARK INTRA:                  -0.926
REMARK UNBOUND:                -0.740
REMARK  Name = cpd209.pdb
REMARK  12 active torsions:
REMARK  status: ('A' for Active; 'I' for Inactive)
REMARK    1  A    between atoms: C_1  and  C_2
REMARK    2  A    between atoms: C_3  and  C_4
REMARK    3  A    between atoms: C_3  and  C_5
REMARK    4  A    between atoms: N_7  and  C_8
REMARK    5  A    between atoms: C_17  and  C_18
REMARK    6  A    between atoms: C_19  and  C_20
REMARK    7  A    between atoms: C_20  and  C_21
REMARK    8  A    between atoms: C_20  and  N_22
REMARK    9  A    between atoms: N_22  and  C_23
REMARK   10  A    between atoms: N_22  and  C_24
REMARK   11  A    between atoms: C_28  and  C_29
REMARK   12  A    between atoms: C_31  and  O_32
REMARK                            x       y       z     vdW  Elec       q    Type
REMARK                         _______ _______ _______ _____ _____    ______ ____
ROOT
ATOM      1  C   UNL     1      34.832 -36.202 -30.511  0.00  0.00    +0.068 C 
ATOM      2  C   UNL     1      34.417 -35.100 -29.584  0.00  0.00    -0.062 C 
ATOM      3  C   UNL     1      33.665 -34.045 -29.952  0.00  0.00    -0.065 C 
ATOM      4  C   UNL     1      33.214 -33.021 -28.932  0.00  0.00    -0.031 C 
ATOM      5  C   UNL     1      31.696 -32.812 -28.956  0.00  0.00    -0.046 C 
ATOM      6  C   UNL     1      31.178 -32.523 -30.381  0.00  0.00    -0.033 C 
ATOM      7  C   UNL     1      31.603 -33.649 -31.353  0.00  0.00    -0.029 C 
ATOM      8  C   UNL     1      30.854 -34.956 -31.019  0.00  0.00    -0.048 C 
ATOM      9  C   UNL     1      29.438 -34.796 -30.467  0.00  0.00    -0.043 C 
ATOM     10  C   UNL     1      28.737 -33.460 -30.747  0.00  0.00    -0.006 C 
ATOM     11  C   UNL     1      27.456 -33.394 -29.886  0.00  0.00    -0.056 C 
ATOM     12  C   UNL     1      28.366 -33.218 -32.207  0.00  0.00    -0.051 C 
ATOM     13  C   UNL     1      28.691 -31.971 -32.584  0.00  0.00    -0.082 C 
ATOM     14  C   UNL     1      29.304 -31.182 -31.486  0.00  0.00    -0.031 C 
ATOM     15  C   UNL     1      29.650 -32.237 -30.408  0.00  0.00    -0.025 C 
ATOM     16  C   UNL     1      33.172 -33.832 -31.388  0.00  0.00    -0.006 C 
ATOM     17  C   UNL     1      33.834 -32.548 -31.964  0.00  0.00    -0.055 C 
ATOM     18  C   UNL     1      33.590 -34.978 -32.365  0.00  0.00    -0.015 C 
ATOM     19  C   UNL     1      33.856 -36.333 -31.709  0.00  0.00    +0.078 C 
ENDROOT
BRANCH   1  22
ATOM     20  C   UNL     1      37.266 -36.456 -30.230  0.00  0.00    +0.240 C 
ATOM     21  O   UNL     1      37.151 -37.211 -29.272  0.00  0.00    -0.271 OA
ATOM     22  N   UNL     1      36.200 -35.911 -30.896  0.00  0.00    -0.303 N 
ATOM     23  H   UNL     1      36.366 -35.306 -31.654  0.00  0.00    +0.000 HD
BRANCH  20  26
ATOM     24  C   UNL     1      41.034 -36.850 -31.051  0.00  0.00    -0.046 C 
ATOM     25  C   UNL     1      39.631 -36.953 -30.546  0.00  0.00    -0.079 C 
ATOM     26  C   UNL     1      38.594 -36.143 -30.836  0.00  0.00    +0.007 C 
ATOM     27  C   UNL     1      38.584 -34.966 -31.761  0.00  0.00    -0.035 C 
ENDBRANCH  20  26
ENDBRANCH   1  22
BRANCH  12  28
ATOM     28  C   UNL     1      27.610 -34.228 -33.058  0.00  0.00    +0.029 C 
ATOM     29  C   UNL     1      28.630 -34.934 -33.970  0.00  0.00    -0.046 C 
BRANCH  28  30
ATOM     30  N   UNL     1      26.513 -33.603 -33.850  0.00  0.00    -0.302 N 
ATOM     31  C   UNL     1      26.326 -34.246 -35.155  0.00  0.00    -0.012 C 
ATOM     32  C   UNL     1      25.235 -33.643 -33.127  0.00  0.00    -0.012 C 
ATOM     33  H   UNL     1      26.799 -32.635 -33.996  0.00  0.00    +0.000 HD
ENDBRANCH  28  30
ENDBRANCH  12  28
BRANCH  19  34
ATOM     34  O   UNL     1      34.310 -37.234 -32.725  0.00  0.00    -0.390 OA
ATOM     35  H   UNL     1      33.570 -37.463 -33.309  0.00  0.00    +0.000 HD
ENDBRANCH  19  34
TORSDOF 5
ENDMDL
MODEL 8
REMARK VINA RESULT:    -7.019     18.894     22.310
REMARK INTER + INTRA:          -9.605
REMARK INTER:                  -8.592
REMARK INTRA:                  -1.013
REMARK UNBOUND:                -0.740
REMARK  Name = cpd209.pdb
REMARK  12 active torsions:
REMARK  status: ('A' for Active; 'I' for Inactive)
REMARK    1  A    between atoms: C_1  and  C_2
REMARK    2  A    between atoms: C_3  and  C_4
REMARK    3  A    between atoms: C_3  and  C_5
REMARK    4  A    between atoms: N_7  and  C_8
REMARK    5  A    between atoms: C_17  and  C_18
REMARK    6  A    between atoms: C_19  and  C_20
REMARK    7  A    between atoms: C_20  and  C_21
REMARK    8  A    between atoms: C_20  and  N_22
REMARK    9  A    between atoms: N_22  and  C_23
REMARK   10  A    between atoms: N_22  and  C_24
REMARK   11  A    between atoms: C_28  and  C_29
REMARK   12  A    between atoms: C_31  and  O_32
REMARK                            x       y       z     vdW  Elec       q    Type
REMARK                         _______ _______ _______ _____ _____    ______ ____
ROOT
ATOM      1  C   UNL     1      34.104 -37.918 -25.965  0.00  0.00    +0.068 C 
ATOM      2  C   UNL     1      35.202 -37.589 -26.932  0.00  0.00    -0.062 C 
ATOM      3  C   UNL     1      35.003 -37.298 -28.231  0.00  0.00    -0.065 C 
ATOM      4  C   UNL     1      36.159 -36.889 -29.119  0.00  0.00    -0.031 C 
ATOM      5  C   UNL     1      35.895 -35.560 -29.836  0.00  0.00    -0.046 C 
ATOM      6  C   UNL     1      34.534 -35.562 -30.566  0.00  0.00    -0.033 C 
ATOM      7  C   UNL     1      33.390 -35.905 -29.583  0.00  0.00    -0.029 C 
ATOM      8  C   UNL     1      33.189 -34.756 -28.573  0.00  0.00    -0.048 C 
ATOM      9  C   UNL     1      33.472 -33.347 -29.093  0.00  0.00    -0.043 C 
ATOM     10  C   UNL     1      33.445 -33.157 -30.615  0.00  0.00    -0.006 C 
ATOM     11  C   UNL     1      34.018 -31.760 -30.941  0.00  0.00    -0.056 C 
ATOM     12  C   UNL     1      32.068 -33.291 -31.259  0.00  0.00    -0.051 C 
ATOM     13  C   UNL     1      32.128 -34.044 -32.368  0.00  0.00    -0.082 C 
ATOM     14  C   UNL     1      33.502 -34.525 -32.661  0.00  0.00    -0.031 C 
ATOM     15  C   UNL     1      34.287 -34.246 -31.357  0.00  0.00    -0.025 C 
ATOM     16  C   UNL     1      33.616 -37.304 -28.885  0.00  0.00    -0.006 C 
ATOM     17  C   UNL     1      33.567 -38.434 -29.953  0.00  0.00    -0.055 C 
ATOM     18  C   UNL     1      32.460 -37.637 -27.887  0.00  0.00    -0.015 C 
ATOM     19  C   UNL     1      32.749 -37.317 -26.421  0.00  0.00    +0.078 C 
ENDROOT
BRANCH   1  22
ATOM     20  C   UNL     1      33.713 -39.984 -24.683  0.00  0.00    +0.240 C 
ATOM     21  O   UNL     1      33.362 -39.380 -23.675  0.00  0.00    -0.271 OA
ATOM     22  N   UNL     1      34.096 -39.363 -25.842  0.00  0.00    -0.303 N 
ATOM     23  H   UNL     1      34.372 -39.912 -26.611  0.00  0.00    +0.000 HD
BRANCH  20  26
ATOM     24  C   UNL     1      33.856 -43.502 -26.305  0.00  0.00    -0.046 C 
ATOM     25  C   UNL     1      33.849 -42.044 -25.980  0.00  0.00    -0.079 C 
ATOM     26  C   UNL     1      33.651 -41.473 -24.775  0.00  0.00    +0.007 C 
ATOM     27  C   UNL     1      33.426 -42.160 -23.464  0.00  0.00    -0.035 C 
ENDBRANCH  20  26
ENDBRANCH   1  22
BRANCH  12  28
ATOM     28  C   UNL     1      30.836 -32.548 -30.763  0.00  0.00    +0.029 C 
ATOM     29  C   UNL     1      29.754 -33.593 -30.436  0.00  0.00    -0.046 C 
BRANCH  28  30
ATOM     30  N   UNL     1      30.341 -31.540 -31.743  0.00  0.00    -0.302 N 
ATOM     31  C   UNL     1      29.026 -31.890 -32.292  0.00  0.00    -0.012 C 
ATOM     32  C   UNL     1      30.252 -30.202 -31.144  0.00  0.00    -0.012 C 
ATOM     33  H   UNL     1      31.024 -31.536 -32.500  0.00  0.00    +0.000 HD
ENDBRANCH  28  30
ENDBRANCH  12  28
BRANCH  19  34
ATOM     34  O   UNL     1      31.632 -37.763 -25.643  0.00  0.00    -0.390 OA
ATOM     35  H   UNL     1      30.811 -37.419 -26.030  0.00  0.00    +0.000 HD
ENDBRANCH  19  34
TORSDOF 5
ENDMDL
MODEL 9
REMARK VINA RESULT:    -7.012     18.826     22.034
REMARK INTER + INTRA:          -9.596
REMARK INTER:                  -8.570
REMARK INTRA:                  -1.026
REMARK UNBOUND:                -0.740
REMARK  Name = cpd209.pdb
REMARK  12 active torsions:
REMARK  status: ('A' for Active; 'I' for Inactive)
REMARK    1  A    between atoms: C_1  and  C_2
REMARK    2  A    between atoms: C_3  and  C_4
REMARK    3  A    between atoms: C_3  and  C_5
REMARK    4  A    between atoms: N_7  and  C_8
REMARK    5  A    between atoms: C_17  and  C_18
REMARK    6  A    between atoms: C_19  and  C_20
REMARK    7  A    between atoms: C_20  and  C_21
REMARK    8  A    between atoms: C_20  and  N_22
REMARK    9  A    between atoms: N_22  and  C_23
REMARK   10  A    between atoms: N_22  and  C_24
REMARK   11  A    between atoms: C_28  and  C_29
REMARK   12  A    between atoms: C_31  and  O_32
REMARK                            x       y       z     vdW  Elec       q    Type
REMARK                         _______ _______ _______ _____ _____    ______ ____
ROOT
ATOM      1  C   UNL     1      34.523 -36.845 -28.220  0.00  0.00    +0.068 C 
ATOM      2  C   UNL     1      35.028 -35.572 -28.830  0.00  0.00    -0.062 C 
ATOM      3  C   UNL     1      34.324 -34.818 -29.696  0.00  0.00    -0.065 C 
ATOM      4  C   UNL     1      34.872 -33.498 -30.197  0.00  0.00    -0.031 C 
ATOM      5  C   UNL     1      33.889 -32.344 -29.976  0.00  0.00    -0.046 C 
ATOM      6  C   UNL     1      32.485 -32.671 -30.528  0.00  0.00    -0.033 C 
ATOM      7  C   UNL     1      31.951 -33.987 -29.913  0.00  0.00    -0.029 C 
ATOM      8  C   UNL     1      31.648 -33.791 -28.412  0.00  0.00    -0.048 C 
ATOM      9  C   UNL     1      31.166 -32.400 -28.000  0.00  0.00    -0.043 C 
ATOM     10  C   UNL     1      30.580 -31.518 -29.110  0.00  0.00    -0.006 C 
ATOM     11  C   UNL     1      30.416 -30.085 -28.556  0.00  0.00    -0.056 C 
ATOM     12  C   UNL     1      29.241 -31.989 -29.670  0.00  0.00    -0.051 C 
ATOM     13  C   UNL     1      29.235 -31.930 -31.011  0.00  0.00    -0.082 C 
ATOM     14  C   UNL     1      30.514 -31.421 -31.568  0.00  0.00    -0.031 C 
ATOM     15  C   UNL     1      31.497 -31.480 -30.375  0.00  0.00    -0.025 C 
ATOM     16  C   UNL     1      32.924 -35.200 -30.189  0.00  0.00    -0.006 C 
ATOM     17  C   UNL     1      32.986 -35.481 -31.717  0.00  0.00    -0.055 C 
ATOM     18  C   UNL     1      32.381 -36.521 -29.555  0.00  0.00    -0.015 C 
ATOM     19  C   UNL     1      32.973 -36.885 -28.193  0.00  0.00    +0.078 C 
ENDROOT
BRANCH   1  22
ATOM     20  C   UNL     1      35.422 -39.131 -28.406  0.00  0.00    +0.240 C 
ATOM     21  O   UNL     1      35.210 -39.390 -27.227  0.00  0.00    -0.271 OA
ATOM     22  N   UNL     1      35.128 -37.923 -28.980  0.00  0.00    -0.303 N 
ATOM     23  H   UNL     1      35.331 -37.782 -29.933  0.00  0.00    +0.000 HD
BRANCH  20  26
ATOM     24  C   UNL     1      35.851 -41.029 -31.759  0.00  0.00    -0.046 C 
ATOM     25  C   UNL     1      35.472 -40.124 -30.632  0.00  0.00    -0.079 C 
ATOM     26  C   UNL     1      35.927 -40.159 -29.363  0.00  0.00    +0.007 C 
ATOM     27  C   UNL     1      36.948 -41.088 -28.784  0.00  0.00    -0.035 C 
ENDBRANCH  20  26
ENDBRANCH   1  22
BRANCH  12  28
ATOM     28  C   UNL     1      28.046 -32.345 -28.797  0.00  0.00    +0.029 C 
ATOM     29  C   UNL     1      27.648 -33.798 -29.112  0.00  0.00    -0.046 C 
BRANCH  28  30
ATOM     30  N   UNL     1      26.899 -31.412 -28.989  0.00  0.00    -0.302 N 
ATOM     31  C   UNL     1      25.640 -32.118 -29.253  0.00  0.00    -0.012 C 
ATOM     32  C   UNL     1      26.707 -30.545 -27.819  0.00  0.00    -0.012 C 
ATOM     33  H   UNL     1      27.139 -30.848 -29.803  0.00  0.00    +0.000 HD
ENDBRANCH  28  30
ENDBRANCH  12  28
BRANCH  19  34
ATOM     34  O   UNL     1      32.438 -38.156 -27.804  0.00  0.00    -0.390 OA
ATOM     35  H   UNL     1      31.966 -38.551 -28.554  0.00  0.00    +0.000 HD
ENDBRANCH  19  34
TORSDOF 5
ENDMDL
MODEL 10
REMARK VINA RESULT:    -6.962     17.431     20.419
REMARK INTER + INTRA:          -9.533
REMARK INTER:                  -9.083
REMARK INTRA:                  -0.450
REMARK UNBOUND:                -0.740
REMARK  Name = cpd209.pdb
REMARK  12 active torsions:
REMARK  status: ('A' for Active; 'I' for Inactive)
REMARK    1  A    between atoms: C_1  and  C_2
REMARK    2  A    between atoms: C_3  and  C_4
REMARK    3  A    between atoms: C_3  and  C_5
REMARK    4  A    between atoms: N_7  and  C_8
REMARK    5  A    between atoms: C_17  and  C_18
REMARK    6  A    between atoms: C_19  and  C_20
REMARK    7  A    between atoms: C_20  and  C_21
REMARK    8  A    between atoms: C_20  and  N_22
REMARK    9  A    between atoms: N_22  and  C_23
REMARK   10  A    between atoms: N_22  and  C_24
REMARK   11  A    between atoms: C_28  and  C_29
REMARK   12  A    between atoms: C_31  and  O_32
REMARK                            x       y       z     vdW  Elec       q    Type
REMARK                         _______ _______ _______ _____ _____    ______ ____
ROOT
ATOM      1  C   UNL     1      34.118 -35.788 -31.136  0.00  0.00    +0.068 C 
ATOM      2  C   UNL     1      33.565 -35.356 -29.812  0.00  0.00    -0.062 C 
ATOM      3  C   UNL     1      33.079 -34.126 -29.560  0.00  0.00    -0.065 C 
ATOM      4  C   UNL     1      32.456 -33.798 -28.220  0.00  0.00    -0.031 C 
ATOM      5  C   UNL     1      31.048 -33.211 -28.365  0.00  0.00    -0.046 C 
ATOM      6  C   UNL     1      31.019 -32.029 -29.358  0.00  0.00    -0.033 C 
ATOM      7  C   UNL     1      31.591 -32.456 -30.730  0.00  0.00    -0.029 C 
ATOM      8  C   UNL     1      30.638 -33.454 -31.421  0.00  0.00    -0.048 C 
ATOM      9  C   UNL     1      29.148 -33.263 -31.141  0.00  0.00    -0.043 C 
ATOM     10  C   UNL     1      28.713 -31.880 -30.638  0.00  0.00    -0.006 C 
ATOM     11  C   UNL     1      27.248 -31.976 -30.159  0.00  0.00    -0.056 C 
ATOM     12  C   UNL     1      28.829 -30.755 -31.662  0.00  0.00    -0.051 C 
ATOM     13  C   UNL     1      29.385 -29.664 -31.113  0.00  0.00    -0.082 C 
ATOM     14  C   UNL     1      29.722 -29.850 -29.679  0.00  0.00    -0.031 C 
ATOM     15  C   UNL     1      29.610 -31.378 -29.460  0.00  0.00    -0.025 C 
ATOM     16  C   UNL     1      33.068 -33.003 -30.604  0.00  0.00    -0.006 C 
ATOM     17  C   UNL     1      34.008 -31.860 -30.127  0.00  0.00    -0.055 C 
ATOM     18  C   UNL     1      33.633 -33.441 -31.994  0.00  0.00    -0.015 C 
ATOM     19  C   UNL     1      33.539 -34.937 -32.296  0.00  0.00    +0.078 C 
ENDROOT
BRANCH   1  22
ATOM     20  C   UNL     1      36.323 -36.830 -30.796  0.00  0.00    +0.240 C 
ATOM     21  O   UNL     1      35.856 -37.958 -30.682  0.00  0.00    -0.271 OA
ATOM     22  N   UNL     1      35.562 -35.714 -31.014  0.00  0.00    -0.303 N 
ATOM     23  H   UNL     1      36.004 -34.838 -31.090  0.00  0.00    +0.000 HD
BRANCH  20  26
ATOM     24  C   UNL     1      39.697 -35.255 -31.877  0.00  0.00    -0.046 C 
ATOM     25  C   UNL     1      38.275 -35.678 -31.694  0.00  0.00    -0.079 C 
ATOM     26  C   UNL     1      37.796 -36.583 -30.818  0.00  0.00    +0.007 C 
ATOM     27  C   UNL     1      38.562 -37.356 -29.791  0.00  0.00    -0.035 C 
ENDBRANCH  20  26
ENDBRANCH   1  22
BRANCH  12  28
ATOM     28  C   UNL     1      28.258 -30.842 -33.070  0.00  0.00    +0.029 C 
ATOM     29  C   UNL     1      28.226 -29.418 -33.654  0.00  0.00    -0.046 C 
BRANCH  28  30
ATOM     30  N   UNL     1      26.909 -31.474 -33.104  0.00  0.00    -0.302 N 
ATOM     31  C   UNL     1      25.838 -30.500 -33.342  0.00  0.00    -0.012 C 
ATOM     32  C   UNL     1      26.827 -32.516 -34.135  0.00  0.00    -0.012 C 
ATOM     33  H   UNL     1      26.778 -31.889 -32.181  0.00  0.00    +0.000 HD
ENDBRANCH  28  30
ENDBRANCH  12  28
BRANCH  19  34
ATOM     34  O   UNL     1      34.178 -35.174 -33.557  0.00  0.00    -0.390 OA
ATOM     35  H   UNL     1      33.525 -35.093 -34.270  0.00  0.00    +0.000 HD
ENDBRANCH  19  34
TORSDOF 5
ENDMDL
MODEL 11
REMARK VINA RESULT:    -6.927     20.088     23.074
REMARK INTER + INTRA:          -9.488
REMARK INTER:                  -8.444
REMARK INTRA:                  -1.045
REMARK UNBOUND:                -0.740
REMARK  Name = cpd209.pdb
REMARK  12 active torsions:
REMARK  status: ('A' for Active; 'I' for Inactive)
REMARK    1  A    between atoms: C_1  and  C_2
REMARK    2  A    between atoms: C_3  and  C_4
REMARK    3  A    between atoms: C_3  and  C_5
REMARK    4  A    between atoms: N_7  and  C_8
REMARK    5  A    between atoms: C_17  and  C_18
REMARK    6  A    between atoms: C_19  and  C_20
REMARK    7  A    between atoms: C_20  and  C_21
REMARK    8  A    between atoms: C_20  and  N_22
REMARK    9  A    between atoms: N_22  and  C_23
REMARK   10  A    between atoms: N_22  and  C_24
REMARK   11  A    between atoms: C_28  and  C_29
REMARK   12  A    between atoms: C_31  and  O_32
REMARK                            x       y       z     vdW  Elec       q    Type
REMARK                         _______ _______ _______ _____ _____    ______ ____
ROOT
ATOM      1  C   UNL     1      52.444 -31.834 -53.226  0.00  0.00    +0.068 C 
ATOM      2  C   UNL     1      51.241 -30.948 -53.103  0.00  0.00    -0.062 C 
ATOM      3  C   UNL     1      50.193 -30.974 -53.949  0.00  0.00    -0.065 C 
ATOM      4  C   UNL     1      48.976 -30.108 -53.701  0.00  0.00    -0.031 C 
ATOM      5  C   UNL     1      47.679 -30.925 -53.691  0.00  0.00    -0.046 C 
ATOM      6  C   UNL     1      47.551 -31.815 -54.946  0.00  0.00    -0.033 C 
ATOM      7  C   UNL     1      48.789 -32.732 -55.092  0.00  0.00    -0.029 C 
ATOM      8  C   UNL     1      48.805 -33.792 -53.970  0.00  0.00    -0.048 C 
ATOM      9  C   UNL     1      47.439 -34.274 -53.483  0.00  0.00    -0.043 C 
ATOM     10  C   UNL     1      46.253 -34.056 -54.431  0.00  0.00    -0.006 C 
ATOM     11  C   UNL     1      44.950 -34.350 -53.655  0.00  0.00    -0.056 C 
ATOM     12  C   UNL     1      46.276 -34.902 -55.700  0.00  0.00    -0.051 C 
ATOM     13  C   UNL     1      45.972 -34.160 -56.776  0.00  0.00    -0.082 C 
ATOM     14  C   UNL     1      45.693 -32.742 -56.435  0.00  0.00    -0.031 C 
ATOM     15  C   UNL     1      46.205 -32.594 -54.983  0.00  0.00    -0.025 C 
ATOM     16  C   UNL     1      50.129 -31.899 -55.170  0.00  0.00    -0.006 C 
ATOM     17  C   UNL     1      50.130 -31.033 -56.461  0.00  0.00    -0.055 C 
ATOM     18  C   UNL     1      51.373 -32.834 -55.307  0.00  0.00    -0.015 C 
ATOM     19  C   UNL     1      52.114 -33.134 -54.003  0.00  0.00    +0.078 C 
ENDROOT
BRANCH   1  22
ATOM     20  C   UNL     1      54.796 -31.154 -53.500  0.00  0.00    +0.240 C 
ATOM     21  O   UNL     1      55.199 -31.943 -52.652  0.00  0.00    -0.271 OA
ATOM     22  N   UNL     1      53.477 -31.024 -53.845  0.00  0.00    -0.303 N 
ATOM     23  H   UNL     1      53.224 -30.365 -54.531  0.00  0.00    +0.000 HD
BRANCH  20  26
ATOM     24  C   UNL     1      58.029 -29.231 -54.438  0.00  0.00    -0.046 C 
ATOM     25  C   UNL     1      56.933 -30.019 -53.796  0.00  0.00    -0.079 C 
ATOM     26  C   UNL     1      55.731 -30.330 -54.322  0.00  0.00    +0.007 C 
ATOM     27  C   UNL     1      55.216 -29.995 -55.686  0.00  0.00    -0.035 C 
ENDBRANCH  20  26
ENDBRANCH   1  22
BRANCH  12  28
ATOM     28  C   UNL     1      46.487 -36.409 -55.699  0.00  0.00    +0.029 C 
ATOM     29  C   UNL     1      47.879 -36.691 -56.293  0.00  0.00    -0.046 C 
BRANCH  28  30
ATOM     30  N   UNL     1      45.420 -37.138 -56.442  0.00  0.00    -0.302 N 
ATOM     31  C   UNL     1      45.917 -38.363 -57.079  0.00  0.00    -0.012 C 
ATOM     32  C   UNL     1      44.298 -37.494 -55.565  0.00  0.00    -0.012 C 
ATOM     33  H   UNL     1      45.103 -36.494 -57.167  0.00  0.00    +0.000 HD
ENDBRANCH  28  30
ENDBRANCH  12  28
BRANCH  19  34
ATOM     34  O   UNL     1      53.266 -33.923 -54.321  0.00  0.00    -0.390 OA
ATOM     35  H   UNL     1      53.254 -34.739 -53.796  0.00  0.00    +0.000 HD
ENDBRANCH  19  34
TORSDOF 5
ENDMDL
MODEL 12
REMARK VINA RESULT:    -6.883     18.406     20.827
REMARK INTER + INTRA:          -9.434
REMARK INTER:                  -8.546
REMARK INTRA:                  -0.888
REMARK UNBOUND:                -0.740
REMARK  Name = cpd209.pdb
REMARK  12 active torsions:
REMARK  status: ('A' for Active; 'I' for Inactive)
REMARK    1  A    between atoms: C_1  and  C_2
REMARK    2  A    between atoms: C_3  and  C_4
REMARK    3  A    between atoms: C_3  and  C_5
REMARK    4  A    between atoms: N_7  and  C_8
REMARK    5  A    between atoms: C_17  and  C_18
REMARK    6  A    between atoms: C_19  and  C_20
REMARK    7  A    between atoms: C_20  and  C_21
REMARK    8  A    between atoms: C_20  and  N_22
REMARK    9  A    between atoms: N_22  and  C_23
REMARK   10  A    between atoms: N_22  and  C_24
REMARK   11  A    between atoms: C_28  and  C_29
REMARK   12  A    between atoms: C_31  and  O_32
REMARK                            x       y       z     vdW  Elec       q    Type
REMARK                         _______ _______ _______ _____ _____    ______ ____
ROOT
ATOM      1  C   UNL     1      30.562 -32.490 -31.641  0.00  0.00    +0.068 C 
ATOM      2  C   UNL     1      31.920 -32.090 -31.148  0.00  0.00    -0.062 C 
ATOM      3  C   UNL     1      32.616 -32.768 -30.216  0.00  0.00    -0.065 C 
ATOM      4  C   UNL     1      34.021 -32.347 -29.839  0.00  0.00    -0.031 C 
ATOM      5  C   UNL     1      35.021 -33.502 -29.956  0.00  0.00    -0.046 C 
ATOM      6  C   UNL     1      34.537 -34.760 -29.202  0.00  0.00    -0.033 C 
ATOM      7  C   UNL     1      33.133 -35.183 -29.695  0.00  0.00    -0.029 C 
ATOM      8  C   UNL     1      33.210 -35.710 -31.143  0.00  0.00    -0.048 C 
ATOM      9  C   UNL     1      34.502 -36.432 -31.527  0.00  0.00    -0.043 C 
ATOM     10  C   UNL     1      35.353 -36.981 -30.375  0.00  0.00    -0.006 C 
ATOM     11  C   UNL     1      36.721 -37.416 -30.945  0.00  0.00    -0.056 C 
ATOM     12  C   UNL     1      34.735 -38.153 -29.618  0.00  0.00    -0.051 C 
ATOM     13  C   UNL     1      34.861 -37.986 -28.292  0.00  0.00    -0.082 C 
ATOM     14  C   UNL     1      35.564 -36.727 -27.936  0.00  0.00    -0.031 C 
ATOM     15  C   UNL     1      35.577 -35.915 -29.252  0.00  0.00    -0.025 C 
ATOM     16  C   UNL     1      32.076 -34.023 -29.519  0.00  0.00    -0.006 C 
ATOM     17  C   UNL     1      31.883 -33.717 -28.007  0.00  0.00    -0.055 C 
ATOM     18  C   UNL     1      30.663 -34.456 -30.029  0.00  0.00    -0.015 C 
ATOM     19  C   UNL     1      30.314 -34.008 -31.449  0.00  0.00    +0.078 C 
ENDROOT
BRANCH   1  22
ATOM     20  C   UNL     1      29.016 -30.574 -31.550  0.00  0.00    +0.240 C 
ATOM     21  O   UNL     1      29.235 -30.248 -32.711  0.00  0.00    -0.271 OA
ATOM     22  N   UNL     1      29.614 -31.644 -30.940  0.00  0.00    -0.303 N 
ATOM     23  H   UNL     1      29.396 -31.845 -30.001  0.00  0.00    +0.000 HD
BRANCH  20  26
ATOM     24  C   UNL     1      27.543 -28.449 -28.662  0.00  0.00    -0.046 C 
ATOM     25  C   UNL     1      28.389 -29.220 -29.622  0.00  0.00    -0.079 C 
ATOM     26  C   UNL     1      27.981 -29.892 -30.718  0.00  0.00    +0.007 C 
ATOM     27  C   UNL     1      26.590 -29.998 -31.260  0.00  0.00    -0.035 C 
ENDBRANCH  20  26
ENDBRANCH   1  22
BRANCH  12  28
ATOM     28  C   UNL     1      34.180 -39.393 -30.302  0.00  0.00    +0.029 C 
ATOM     29  C   UNL     1      32.833 -39.735 -29.640  0.00  0.00    -0.046 C 
BRANCH  28  30
ATOM     30  N   UNL     1      35.121 -40.547 -30.249  0.00  0.00    -0.302 N 
ATOM     31  C   UNL     1      34.548 -41.707 -29.555  0.00  0.00    -0.012 C 
ATOM     32  C   UNL     1      35.535 -40.970 -31.592  0.00  0.00    -0.012 C 
ATOM     33  H   UNL     1      35.930 -40.216 -29.724  0.00  0.00    +0.000 HD
ENDBRANCH  28  30
ENDBRANCH  12  28
BRANCH  19  34
ATOM     34  O   UNL     1      28.965 -34.409 -31.718  0.00  0.00    -0.390 OA
ATOM     35  H   UNL     1      28.364 -33.953 -31.109  0.00  0.00    +0.000 HD
ENDBRANCH  19  34
TORSDOF 5
ENDMDL
MODEL 13
REMARK VINA RESULT:    -6.883     19.708     23.811
REMARK INTER + INTRA:          -9.433
REMARK INTER:                  -8.383
REMARK INTRA:                  -1.050
REMARK UNBOUND:                -0.740
REMARK  Name = cpd209.pdb
REMARK  12 active torsions:
REMARK  status: ('A' for Active; 'I' for Inactive)
REMARK    1  A    between atoms: C_1  and  C_2
REMARK    2  A    between atoms: C_3  and  C_4
REMARK    3  A    between atoms: C_3  and  C_5
REMARK    4  A    between atoms: N_7  and  C_8
REMARK    5  A    between atoms: C_17  and  C_18
REMARK    6  A    between atoms: C_19  and  C_20
REMARK    7  A    between atoms: C_20  and  C_21
REMARK    8  A    between atoms: C_20  and  N_22
REMARK    9  A    between atoms: N_22  and  C_23
REMARK   10  A    between atoms: N_22  and  C_24
REMARK   11  A    between atoms: C_28  and  C_29
REMARK   12  A    between atoms: C_31  and  O_32
REMARK                            x       y       z     vdW  Elec       q    Type
REMARK                         _______ _______ _______ _____ _____    ______ ____
ROOT
ATOM      1  C   UNL     1      46.603 -32.987 -53.329  0.00  0.00    +0.068 C 
ATOM      2  C   UNL     1      45.389 -33.618 -53.941  0.00  0.00    -0.062 C 
ATOM      3  C   UNL     1      45.405 -34.350 -55.070  0.00  0.00    -0.065 C 
ATOM      4  C   UNL     1      44.147 -35.029 -55.572  0.00  0.00    -0.031 C 
ATOM      5  C   UNL     1      44.356 -36.528 -55.811  0.00  0.00    -0.046 C 
ATOM      6  C   UNL     1      45.593 -36.802 -56.695  0.00  0.00    -0.033 C 
ATOM      7  C   UNL     1      46.855 -36.152 -56.080  0.00  0.00    -0.029 C 
ATOM      8  C   UNL     1      47.249 -36.876 -54.776  0.00  0.00    -0.048 C 
ATOM      9  C   UNL     1      46.950 -38.374 -54.722  0.00  0.00    -0.043 C 
ATOM     10  C   UNL     1      46.759 -39.087 -56.067  0.00  0.00    -0.006 C 
ATOM     11  C   UNL     1      46.200 -40.500 -55.793  0.00  0.00    -0.056 C 
ATOM     12  C   UNL     1      48.019 -39.208 -56.918  0.00  0.00    -0.051 C 
ATOM     13  C   UNL     1      47.765 -38.891 -58.198  0.00  0.00    -0.082 C 
ATOM     14  C   UNL     1      46.345 -38.523 -58.427  0.00  0.00    -0.031 C 
ATOM     15  C   UNL     1      45.773 -38.315 -57.004  0.00  0.00    -0.025 C 
ATOM     16  C   UNL     1      46.678 -34.594 -55.889  0.00  0.00    -0.006 C 
ATOM     17  C   UNL     1      46.524 -33.913 -57.278  0.00  0.00    -0.055 C 
ATOM     18  C   UNL     1      47.955 -33.949 -55.259  0.00  0.00    -0.015 C 
ATOM     19  C   UNL     1      47.899 -33.729 -53.747  0.00  0.00    +0.078 C 
ENDROOT
BRANCH   1  22
ATOM     20  C   UNL     1      47.053 -30.603 -52.904  0.00  0.00    +0.240 C 
ATOM     21  O   UNL     1      47.532 -30.815 -51.795  0.00  0.00    -0.271 OA
ATOM     22  N   UNL     1      46.571 -31.591 -53.721  0.00  0.00    -0.303 N 
ATOM     23  H   UNL     1      46.194 -31.347 -54.597  0.00  0.00    +0.000 HD
BRANCH  20  26
ATOM     24  C   UNL     1      47.521 -27.873 -55.616  0.00  0.00    -0.046 C 
ATOM     25  C   UNL     1      47.461 -29.121 -54.795  0.00  0.00    -0.079 C 
ATOM     26  C   UNL     1      47.050 -29.242 -53.517  0.00  0.00    +0.007 C 
ATOM     27  C   UNL     1      46.520 -28.167 -52.622  0.00  0.00    -0.035 C 
ENDBRANCH  20  26
ENDBRANCH   1  22
BRANCH  12  28
ATOM     28  C   UNL     1      49.340 -39.747 -56.388  0.00  0.00    +0.029 C 
ATOM     29  C   UNL     1      50.322 -38.566 -56.279  0.00  0.00    -0.046 C 
BRANCH  28  30
ATOM     30  N   UNL     1      49.895 -40.839 -57.236  0.00  0.00    -0.302 N 
ATOM     31  C   UNL     1      51.356 -40.776 -57.347  0.00  0.00    -0.012 C 
ATOM     32  C   UNL     1      49.526 -42.164 -56.720  0.00  0.00    -0.012 C 
ATOM     33  H   UNL     1      49.487 -40.702 -58.161  0.00  0.00    +0.000 HD
ENDBRANCH  28  30
ENDBRANCH  12  28
BRANCH  19  34
ATOM     34  O   UNL     1      49.100 -33.055 -53.354  0.00  0.00    -0.390 OA
ATOM     35  H   UNL     1      48.957 -32.096 -53.383  0.00  0.00    +0.000 HD
ENDBRANCH  19  34
TORSDOF 5
ENDMDL
MODEL 14
REMARK VINA RESULT:    -6.829      1.968      2.672
REMARK INTER + INTRA:          -9.365
REMARK INTER:                  -8.466
REMARK INTRA:                  -0.899
REMARK UNBOUND:                -0.740
REMARK  Name = cpd209.pdb
REMARK  12 active torsions:
REMARK  status: ('A' for Active; 'I' for Inactive)
REMARK    1  A    between atoms: C_1  and  C_2
REMARK    2  A    between atoms: C_3  and  C_4
REMARK    3  A    between atoms: C_3  and  C_5
REMARK    4  A    between atoms: N_7  and  C_8
REMARK    5  A    between atoms: C_17  and  C_18
REMARK    6  A    between atoms: C_19  and  C_20
REMARK    7  A    between atoms: C_20  and  C_21
REMARK    8  A    between atoms: C_20  and  N_22
REMARK    9  A    between atoms: N_22  and  C_23
REMARK   10  A    between atoms: N_22  and  C_24
REMARK   11  A    between atoms: C_28  and  C_29
REMARK   12  A    between atoms: C_31  and  O_32
REMARK                            x       y       z     vdW  Elec       q    Type
REMARK                         _______ _______ _______ _____ _____    ______ ____
ROOT
ATOM      1  C   UNL     1      41.953 -21.167 -35.400  0.00  0.00    +0.068 C 
ATOM      2  C   UNL     1      41.921 -21.791 -36.763  0.00  0.00    -0.062 C 
ATOM      3  C   UNL     1      41.975 -21.095 -37.914  0.00  0.00    -0.065 C 
ATOM      4  C   UNL     1      42.029 -21.808 -39.249  0.00  0.00    -0.031 C 
ATOM      5  C   UNL     1      43.213 -21.345 -40.104  0.00  0.00    -0.046 C 
ATOM      6  C   UNL     1      43.265 -19.807 -40.230  0.00  0.00    -0.033 C 
ATOM      7  C   UNL     1      43.292 -19.147 -38.832  0.00  0.00    -0.029 C 
ATOM      8  C   UNL     1      44.635 -19.437 -38.129  0.00  0.00    -0.048 C 
ATOM      9  C   UNL     1      45.857 -19.558 -39.039  0.00  0.00    -0.043 C 
ATOM     10  C   UNL     1      45.744 -18.922 -40.431  0.00  0.00    -0.006 C 
ATOM     11  C   UNL     1      46.951 -19.386 -41.277  0.00  0.00    -0.056 C 
ATOM     12  C   UNL     1      45.688 -17.398 -40.442  0.00  0.00    -0.051 C 
ATOM     13  C   UNL     1      44.729 -16.960 -41.274  0.00  0.00    -0.082 C 
ATOM     14  C   UNL     1      44.005 -18.067 -41.948  0.00  0.00    -0.031 C 
ATOM     15  C   UNL     1      44.420 -19.329 -41.155  0.00  0.00    -0.025 C 
ATOM     16  C   UNL     1      42.042 -19.564 -37.962  0.00  0.00    -0.006 C 
ATOM     17  C   UNL     1      40.743 -19.023 -38.624  0.00  0.00    -0.055 C 
ATOM     18  C   UNL     1      42.084 -18.900 -36.548  0.00  0.00    -0.015 C 
ATOM     19  C   UNL     1      42.643 -19.779 -35.428  0.00  0.00    +0.078 C 
ENDROOT
BRANCH   1  22
ATOM     20  C   UNL     1      40.255 -21.305 -33.621  0.00  0.00    +0.240 C 
ATOM     21  O   UNL     1      41.086 -21.506 -32.742  0.00  0.00    -0.271 OA
ATOM     22  N   UNL     1      40.577 -21.133 -34.941  0.00  0.00    -0.303 N 
ATOM     23  H   UNL     1      39.858 -20.982 -35.594  0.00  0.00    +0.000 HD
BRANCH  20  26
ATOM     24  C   UNL     1      36.961 -19.442 -32.780  0.00  0.00    -0.046 C 
ATOM     25  C   UNL     1      38.362 -19.868 -33.082  0.00  0.00    -0.079 C 
ATOM     26  C   UNL     1      38.806 -21.119 -33.313  0.00  0.00    +0.007 C 
ATOM     27  C   UNL     1      38.003 -22.381 -33.359  0.00  0.00    -0.035 C 
ENDBRANCH  20  26
ENDBRANCH   1  22
BRANCH  12  28
ATOM     28  C   UNL     1      46.685 -16.517 -39.704  0.00  0.00    +0.029 C 
ATOM     29  C   UNL     1      46.044 -16.095 -38.369  0.00  0.00    -0.046 C 
BRANCH  28  30
ATOM     30  N   UNL     1      47.106 -15.332 -40.504  0.00  0.00    -0.302 N 
ATOM     31  C   UNL     1      47.644 -14.253 -39.668  0.00  0.00    -0.012 C 
ATOM     32  C   UNL     1      48.117 -15.689 -41.507  0.00  0.00    -0.012 C 
ATOM     33  H   UNL     1      46.260 -15.001 -40.967  0.00  0.00    +0.000 HD
ENDBRANCH  28  30
ENDBRANCH  12  28
BRANCH  19  34
ATOM     34  O   UNL     1      42.526 -19.054 -34.198  0.00  0.00    -0.390 OA
ATOM     35  H   UNL     1      42.077 -18.210 -34.362  0.00  0.00    +0.000 HD
ENDBRANCH  19  34
TORSDOF 5
ENDMDL
MODEL 15
REMARK VINA RESULT:    -6.731     22.377     25.406
REMARK INTER + INTRA:          -9.241
REMARK INTER:                  -8.346
REMARK INTRA:                  -0.895
REMARK UNBOUND:                -0.740
REMARK  Name = cpd209.pdb
REMARK  12 active torsions:
REMARK  status: ('A' for Active; 'I' for Inactive)
REMARK    1  A    between atoms: C_1  and  C_2
REMARK    2  A    between atoms: C_3  and  C_4
REMARK    3  A    between atoms: C_3  and  C_5
REMARK    4  A    between atoms: N_7  and  C_8
REMARK    5  A    between atoms: C_17  and  C_18
REMARK    6  A    between atoms: C_19  and  C_20
REMARK    7  A    between atoms: C_20  and  C_21
REMARK    8  A    between atoms: C_20  and  N_22
REMARK    9  A    between atoms: N_22  and  C_23
REMARK   10  A    between atoms: N_22  and  C_24
REMARK   11  A    between atoms: C_28  and  C_29
REMARK   12  A    between atoms: C_31  and  O_32
REMARK                            x       y       z     vdW  Elec       q    Type
REMARK                         _______ _______ _______ _____ _____    ______ ____
ROOT
ATOM      1  C   UNL     1      36.026 -38.393 -29.696  0.00  0.00    +0.068 C 
ATOM      2  C   UNL     1      34.903 -38.339 -30.688  0.00  0.00    -0.062 C 
ATOM      3  C   UNL     1      34.397 -39.417 -31.316  0.00  0.00    -0.065 C 
ATOM      4  C   UNL     1      33.202 -39.288 -32.236  0.00  0.00    -0.031 C 
ATOM      5  C   UNL     1      32.073 -40.252 -31.855  0.00  0.00    -0.046 C 
ATOM      6  C   UNL     1      32.581 -41.704 -31.713  0.00  0.00    -0.033 C 
ATOM      7  C   UNL     1      33.745 -41.776 -30.697  0.00  0.00    -0.029 C 
ATOM      8  C   UNL     1      33.228 -41.495 -29.270  0.00  0.00    -0.048 C 
ATOM      9  C   UNL     1      31.804 -41.959 -28.968  0.00  0.00    -0.043 C 
ATOM     10  C   UNL     1      31.223 -43.043 -29.886  0.00  0.00    -0.006 C 
ATOM     11  C   UNL     1      29.711 -43.167 -29.596  0.00  0.00    -0.056 C 
ATOM     12  C   UNL     1      31.870 -44.418 -29.751  0.00  0.00    -0.051 C 
ATOM     13  C   UNL     1      32.116 -44.952 -30.957  0.00  0.00    -0.082 C 
ATOM     14  C   UNL     1      31.689 -44.071 -32.073  0.00  0.00    -0.031 C 
ATOM     15  C   UNL     1      31.431 -42.703 -31.398  0.00  0.00    -0.025 C 
ATOM     16  C   UNL     1      34.944 -40.835 -31.112  0.00  0.00    -0.006 C 
ATOM     17  C   UNL     1      35.561 -41.335 -32.449  0.00  0.00    -0.055 C 
ATOM     18  C   UNL     1      36.111 -40.908 -30.074  0.00  0.00    -0.015 C 
ATOM     19  C   UNL     1      36.129 -39.790 -29.032  0.00  0.00    +0.078 C 
ENDROOT
BRANCH   1  22
ATOM     20  C   UNL     1      37.693 -36.709 -30.370  0.00  0.00    +0.240 C 
ATOM     21  O   UNL     1      37.153 -35.812 -29.734  0.00  0.00    -0.271 OA
ATOM     22  N   UNL     1      37.219 -37.993 -30.418  0.00  0.00    -0.303 N 
ATOM     23  H   UNL     1      37.701 -38.663 -30.956  0.00  0.00    +0.000 HD
BRANCH  20  26
ATOM     24  C   UNL     1      41.499 -36.989 -31.055  0.00  0.00    -0.046 C 
ATOM     25  C   UNL     1      40.103 -37.042 -30.523  0.00  0.00    -0.079 C 
ATOM     26  C   UNL     1      38.995 -36.508 -31.074  0.00  0.00    +0.007 C 
ATOM     27  C   UNL     1      38.884 -35.767 -32.369  0.00  0.00    -0.035 C 
ENDBRANCH  20  26
ENDBRANCH   1  22
BRANCH  12  28
ATOM     28  C   UNL     1      32.072 -45.121 -28.416  0.00  0.00    +0.029 C 
ATOM     29  C   UNL     1      33.553 -45.531 -28.319  0.00  0.00    -0.046 C 
BRANCH  28  30
ATOM     30  N   UNL     1      31.170 -46.294 -28.244  0.00  0.00    -0.302 N 
ATOM     31  C   UNL     1      31.908 -47.556 -28.114  0.00  0.00    -0.012 C 
ATOM     32  C   UNL     1      30.303 -46.141 -27.069  0.00  0.00    -0.012 C 
ATOM     33  H   UNL     1      30.602 -46.330 -29.091  0.00  0.00    +0.000 HD
ENDBRANCH  28  30
ENDBRANCH  12  28
BRANCH  19  34
ATOM     34  O   UNL     1      37.301 -39.957 -28.226  0.00  0.00    -0.390 OA
ATOM     35  H   UNL     1      37.229 -39.406 -27.431  0.00  0.00    +0.000 HD
ENDBRANCH  19  34
TORSDOF 5
ENDMDL
MODEL 16
REMARK VINA RESULT:    -6.437     19.875     23.072
REMARK INTER + INTRA:          -8.870
REMARK INTER:                  -7.880
REMARK INTRA:                  -0.991
REMARK UNBOUND:                -0.740
REMARK  Name = cpd209.pdb
REMARK  12 active torsions:
REMARK  status: ('A' for Active; 'I' for Inactive)
REMARK    1  A    between atoms: C_1  and  C_2
REMARK    2  A    between atoms: C_3  and  C_4
REMARK    3  A    between atoms: C_3  and  C_5
REMARK    4  A    between atoms: N_7  and  C_8
REMARK    5  A    between atoms: C_17  and  C_18
REMARK    6  A    between atoms: C_19  and  C_20
REMARK    7  A    between atoms: C_20  and  C_21
REMARK    8  A    between atoms: C_20  and  N_22
REMARK    9  A    between atoms: N_22  and  C_23
REMARK   10  A    between atoms: N_22  and  C_24
REMARK   11  A    between atoms: C_28  and  C_29
REMARK   12  A    between atoms: C_31  and  O_32
REMARK                            x       y       z     vdW  Elec       q    Type
REMARK                         _______ _______ _______ _____ _____    ______ ____
ROOT
ATOM      1  C   UNL     1      34.493 -40.099 -27.197  0.00  0.00    +0.068 C 
ATOM      2  C   UNL     1      35.547 -39.655 -28.166  0.00  0.00    -0.062 C 
ATOM      3  C   UNL     1      35.289 -39.018 -29.324  0.00  0.00    -0.065 C 
ATOM      4  C   UNL     1      36.417 -38.522 -30.204  0.00  0.00    -0.031 C 
ATOM      5  C   UNL     1      36.277 -37.032 -30.537  0.00  0.00    -0.046 C 
ATOM      6  C   UNL     1      34.877 -36.697 -31.093  0.00  0.00    -0.033 C 
ATOM      7  C   UNL     1      33.776 -37.155 -30.107  0.00  0.00    -0.029 C 
ATOM      8  C   UNL     1      33.809 -36.291 -28.829  0.00  0.00    -0.048 C 
ATOM      9  C   UNL     1      34.235 -34.835 -29.013  0.00  0.00    -0.043 C 
ATOM     10  C   UNL     1      34.116 -34.257 -30.429  0.00  0.00    -0.006 C 
ATOM     11  C   UNL     1      34.844 -32.895 -30.460  0.00  0.00    -0.056 C 
ATOM     12  C   UNL     1      32.688 -34.068 -30.932  0.00  0.00    -0.051 C 
ATOM     13  C   UNL     1      32.562 -34.512 -32.193  0.00  0.00    -0.082 C 
ATOM     14  C   UNL     1      33.833 -35.048 -32.742  0.00  0.00    -0.031 C 
ATOM     15  C   UNL     1      34.746 -35.203 -31.503  0.00  0.00    -0.025 C 
ATOM     16  C   UNL     1      33.867 -38.703 -29.805  0.00  0.00    -0.006 C 
ATOM     17  C   UNL     1      33.586 -39.506 -31.106  0.00  0.00    -0.055 C 
ATOM     18  C   UNL     1      32.758 -39.154 -28.801  0.00  0.00    -0.015 C 
ATOM     19  C   UNL     1      33.200 -39.257 -27.341  0.00  0.00    +0.078 C 
ENDROOT
BRANCH   1  22
ATOM     20  C   UNL     1      34.178 -42.409 -26.402  0.00  0.00    +0.240 C 
ATOM     21  O   UNL     1      34.226 -42.088 -25.220  0.00  0.00    -0.271 OA
ATOM     22  N   UNL     1      34.302 -41.518 -27.434  0.00  0.00    -0.303 N 
ATOM     23  H   UNL     1      34.261 -41.848 -28.361  0.00  0.00    +0.000 HD
BRANCH  20  26
ATOM     24  C   UNL     1      33.606 -45.398 -28.804  0.00  0.00    -0.046 C 
ATOM     25  C   UNL     1      33.865 -44.079 -28.150  0.00  0.00    -0.079 C 
ATOM     26  C   UNL     1      33.868 -43.806 -26.830  0.00  0.00    +0.007 C 
ATOM     27  C   UNL     1      33.650 -44.760 -25.698  0.00  0.00    -0.035 C 
ENDBRANCH  20  26
ENDBRANCH   1  22
BRANCH  12  28
ATOM     28  C   UNL     1      31.609 -33.349 -30.137  0.00  0.00    +0.029 C 
ATOM     29  C   UNL     1      30.599 -34.405 -29.649  0.00  0.00    -0.046 C 
BRANCH  28  30
ATOM     30  N   UNL     1      30.936 -32.276 -30.924  0.00  0.00    -0.302 N 
ATOM     31  C   UNL     1      29.529 -32.101 -30.546  0.00  0.00    -0.012 C 
ATOM     32  C   UNL     1      31.621 -30.986 -30.774  0.00  0.00    -0.012 C 
ATOM     33  H   UNL     1      30.981 -32.582 -31.896  0.00  0.00    +0.000 HD
ENDBRANCH  28  30
ENDBRANCH  12  28
BRANCH  19  34
ATOM     34  O   UNL     1      32.097 -39.764 -26.581  0.00  0.00    -0.390 OA
ATOM     35  H   UNL     1      32.370 -40.566 -26.108  0.00  0.00    +0.000 HD
ENDBRANCH  19  34
TORSDOF 5
ENDMDL
MODEL 17
REMARK VINA RESULT:    -6.381     18.276     20.660
REMARK INTER + INTRA:          -8.800
REMARK INTER:                  -8.098
REMARK INTRA:                  -0.702
REMARK UNBOUND:                -0.740
REMARK  Name = cpd209.pdb
REMARK  12 active torsions:
REMARK  status: ('A' for Active; 'I' for Inactive)
REMARK    1  A    between atoms: C_1  and  C_2
REMARK    2  A    between atoms: C_3  and  C_4
REMARK    3  A    between atoms: C_3  and  C_5
REMARK    4  A    between atoms: N_7  and  C_8
REMARK    5  A    between atoms: C_17  and  C_18
REMARK    6  A    between atoms: C_19  and  C_20
REMARK    7  A    between atoms: C_20  and  C_21
REMARK    8  A    between atoms: C_20  and  N_22
REMARK    9  A    between atoms: N_22  and  C_23
REMARK   10  A    between atoms: N_22  and  C_24
REMARK   11  A    between atoms: C_28  and  C_29
REMARK   12  A    between atoms: C_31  and  O_32
REMARK                            x       y       z     vdW  Elec       q    Type
REMARK                         _______ _______ _______ _____ _____    ______ ____
ROOT
ATOM      1  C   UNL     1      33.553 -33.446 -31.377  0.00  0.00    +0.068 C 
ATOM      2  C   UNL     1      32.396 -34.009 -32.147  0.00  0.00    -0.062 C 
ATOM      3  C   UNL     1      31.118 -33.971 -31.725  0.00  0.00    -0.065 C 
ATOM      4  C   UNL     1      29.997 -34.481 -32.606  0.00  0.00    -0.031 C 
ATOM      5  C   UNL     1      28.892 -33.437 -32.798  0.00  0.00    -0.046 C 
ATOM      6  C   UNL     1      28.399 -32.867 -31.450  0.00  0.00    -0.033 C 
ATOM      7  C   UNL     1      29.583 -32.288 -30.639  0.00  0.00    -0.029 C 
ATOM      8  C   UNL     1      30.129 -31.016 -31.323  0.00  0.00    -0.048 C 
ATOM      9  C   UNL     1      29.103 -30.160 -32.065  0.00  0.00    -0.043 C 
ATOM     10  C   UNL     1      27.633 -30.350 -31.671  0.00  0.00    -0.006 C 
ATOM     11  C   UNL     1      26.753 -29.616 -32.707  0.00  0.00    -0.056 C 
ATOM     12  C   UNL     1      27.270 -29.856 -30.273  0.00  0.00    -0.051 C 
ATOM     13  C   UNL     1      26.509 -30.755 -29.630  0.00  0.00    -0.082 C 
ATOM     14  C   UNL     1      26.229 -31.961 -30.450  0.00  0.00    -0.031 C 
ATOM     15  C   UNL     1      27.228 -31.859 -31.627  0.00  0.00    -0.025 C 
ATOM     16  C   UNL     1      30.700 -33.372 -30.377  0.00  0.00    -0.006 C 
ATOM     17  C   UNL     1      30.128 -34.504 -29.478  0.00  0.00    -0.055 C 
ATOM     18  C   UNL     1      31.896 -32.775 -29.566  0.00  0.00    -0.015 C 
ATOM     19  C   UNL     1      33.097 -32.330 -30.402  0.00  0.00    +0.078 C 
ENDROOT
BRANCH   1  22
ATOM     20  C   UNL     1      35.532 -34.592 -30.462  0.00  0.00    +0.240 C 
ATOM     21  O   UNL     1      36.292 -33.676 -30.759  0.00  0.00    -0.271 OA
ATOM     22  N   UNL     1      34.189 -34.576 -30.724  0.00  0.00    -0.303 N 
ATOM     23  H   UNL     1      33.639 -35.349 -30.463  0.00  0.00    +0.000 HD
BRANCH  20  26
ATOM     24  C   UNL     1      37.866 -37.467 -29.313  0.00  0.00    -0.046 C 
ATOM     25  C   UNL     1      37.197 -36.305 -29.973  0.00  0.00    -0.079 C 
ATOM     26  C   UNL     1      35.992 -35.777 -29.679  0.00  0.00    +0.007 C 
ATOM     27  C   UNL     1      35.048 -36.201 -28.598  0.00  0.00    -0.035 C 
ENDBRANCH  20  26
ENDBRANCH   1  22
BRANCH  12  28
ATOM     28  C   UNL     1      27.625 -28.470 -29.756  0.00  0.00    +0.029 C 
ATOM     29  C   UNL     1      27.536 -28.502 -28.220  0.00  0.00    -0.046 C 
BRANCH  28  30
ATOM     30  N   UNL     1      26.755 -27.404 -30.330  0.00  0.00    -0.302 N 
ATOM     31  C   UNL     1      25.484 -27.269 -29.608  0.00  0.00    -0.012 C 
ATOM     32  C   UNL     1      27.428 -26.099 -30.331  0.00  0.00    -0.012 C 
ATOM     33  H   UNL     1      26.561 -27.696 -31.287  0.00  0.00    +0.000 HD
ENDBRANCH  28  30
ENDBRANCH  12  28
BRANCH  19  34
ATOM     34  O   UNL     1      34.124 -31.896 -29.503  0.00  0.00    -0.390 OA
ATOM     35  H   UNL     1      34.622 -32.666 -29.187  0.00  0.00    +0.000 HD
ENDBRANCH  19  34
TORSDOF 5
ENDMDL
MODEL 18
REMARK VINA RESULT:    -6.372      3.560      5.363
REMARK INTER + INTRA:          -8.788
REMARK INTER:                  -7.742
REMARK INTRA:                  -1.046
REMARK UNBOUND:                -0.740
REMARK  Name = cpd209.pdb
REMARK  12 active torsions:
REMARK  status: ('A' for Active; 'I' for Inactive)
REMARK    1  A    between atoms: C_1  and  C_2
REMARK    2  A    between atoms: C_3  and  C_4
REMARK    3  A    between atoms: C_3  and  C_5
REMARK    4  A    between atoms: N_7  and  C_8
REMARK    5  A    between atoms: C_17  and  C_18
REMARK    6  A    between atoms: C_19  and  C_20
REMARK    7  A    between atoms: C_20  and  C_21
REMARK    8  A    between atoms: C_20  and  N_22
REMARK    9  A    between atoms: N_22  and  C_23
REMARK   10  A    between atoms: N_22  and  C_24
REMARK   11  A    between atoms: C_28  and  C_29
REMARK   12  A    between atoms: C_31  and  O_32
REMARK                            x       y       z     vdW  Elec       q    Type
REMARK                         _______ _______ _______ _____ _____    ______ ____
ROOT
ATOM      1  C   UNL     1      42.689 -19.917 -34.587  0.00  0.00    +0.068 C 
ATOM      2  C   UNL     1      44.104 -20.297 -34.905  0.00  0.00    -0.062 C 
ATOM      3  C   UNL     1      44.714 -20.027 -36.075  0.00  0.00    -0.065 C 
ATOM      4  C   UNL     1      46.175 -20.366 -36.283  0.00  0.00    -0.031 C 
ATOM      5  C   UNL     1      46.988 -19.154 -36.751  0.00  0.00    -0.046 C 
ATOM      6  C   UNL     1      46.341 -18.465 -37.971  0.00  0.00    -0.033 C 
ATOM      7  C   UNL     1      44.877 -18.071 -37.661  0.00  0.00    -0.029 C 
ATOM      8  C   UNL     1      44.838 -16.935 -36.617  0.00  0.00    -0.048 C 
ATOM      9  C   UNL     1      45.997 -15.940 -36.663  0.00  0.00    -0.043 C 
ATOM     10  C   UNL     1      46.785 -15.862 -37.977  0.00  0.00    -0.006 C 
ATOM     11  C   UNL     1      48.058 -15.022 -37.732  0.00  0.00    -0.056 C 
ATOM     12  C   UNL     1      46.019 -15.268 -39.156  0.00  0.00    -0.051 C 
ATOM     13  C   UNL     1      46.202 -16.002 -40.265  0.00  0.00    -0.082 C 
ATOM     14  C   UNL     1      47.093 -17.168 -40.040  0.00  0.00    -0.031 C 
ATOM     15  C   UNL     1      47.194 -17.277 -38.500  0.00  0.00    -0.025 C 
ATOM     16  C   UNL     1      44.010 -19.322 -37.241  0.00  0.00    -0.006 C 
ATOM     17  C   UNL     1      43.904 -20.309 -38.437  0.00  0.00    -0.055 C 
ATOM     18  C   UNL     1      42.536 -18.913 -36.920  0.00  0.00    -0.015 C 
ATOM     19  C   UNL     1      42.221 -18.709 -35.437  0.00  0.00    +0.078 C 
ENDROOT
BRANCH   1  22
ATOM     20  C   UNL     1      40.778 -21.370 -34.033  0.00  0.00    +0.240 C 
ATOM     21  O   UNL     1      40.370 -20.622 -33.152  0.00  0.00    -0.271 OA
ATOM     22  N   UNL     1      41.897 -21.117 -34.781  0.00  0.00    -0.303 N 
ATOM     23  H   UNL     1      42.170 -21.766 -35.469  0.00  0.00    +0.000 HD
BRANCH  20  26
ATOM     24  C   UNL     1      38.301 -24.340 -33.766  0.00  0.00    -0.046 C 
ATOM     25  C   UNL     1      39.173 -23.143 -33.563  0.00  0.00    -0.079 C 
ATOM     26  C   UNL     1      40.021 -22.587 -34.451  0.00  0.00    +0.007 C 
ATOM     27  C   UNL     1      40.270 -23.009 -35.865  0.00  0.00    -0.035 C 
ENDBRANCH  20  26
ENDBRANCH   1  22
BRANCH  12  28
ATOM     28  C   UNL     1      45.267 -13.947 -39.086  0.00  0.00    +0.029 C 
ATOM     29  C   UNL     1      43.760 -14.262 -39.083  0.00  0.00    -0.046 C 
BRANCH  28  30
ATOM     30  N   UNL     1      45.627 -13.023 -40.198  0.00  0.00    -0.302 N 
ATOM     31  C   UNL     1      44.524 -12.128 -40.565  0.00  0.00    -0.012 C 
ATOM     32  C   UNL     1      46.797 -12.202 -39.861  0.00  0.00    -0.012 C 
ATOM     33  H   UNL     1      45.843 -13.624 -40.994  0.00  0.00    +0.000 HD
ENDBRANCH  28  30
ENDBRANCH  12  28
BRANCH  19  34
ATOM     34  O   UNL     1      40.822 -18.428 -35.318  0.00  0.00    -0.390 OA
ATOM     35  H   UNL     1      40.362 -19.215 -34.986  0.00  0.00    +0.000 HD
ENDBRANCH  19  34
TORSDOF 5
ENDMDL
MODEL 19
REMARK VINA RESULT:    -6.356     16.893     19.666
REMARK INTER + INTRA:          -8.767
REMARK INTER:                  -7.872
REMARK INTRA:                  -0.895
REMARK UNBOUND:                -0.740
REMARK  Name = cpd209.pdb
REMARK  12 active torsions:
REMARK  status: ('A' for Active; 'I' for Inactive)
REMARK    1  A    between atoms: C_1  and  C_2
REMARK    2  A    between atoms: C_3  and  C_4
REMARK    3  A    between atoms: C_3  and  C_5
REMARK    4  A    between atoms: N_7  and  C_8
REMARK    5  A    between atoms: C_17  and  C_18
REMARK    6  A    between atoms: C_19  and  C_20
REMARK    7  A    between atoms: C_20  and  C_21
REMARK    8  A    between atoms: C_20  and  N_22
REMARK    9  A    between atoms: N_22  and  C_23
REMARK   10  A    between atoms: N_22  and  C_24
REMARK   11  A    between atoms: C_28  and  C_29
REMARK   12  A    between atoms: C_31  and  O_32
REMARK                            x       y       z     vdW  Elec       q    Type
REMARK                         _______ _______ _______ _____ _____    ______ ____
ROOT
ATOM      1  C   UNL     1      29.524 -31.043 -29.645  0.00  0.00    +0.068 C 
ATOM      2  C   UNL     1      29.231 -32.486 -29.366  0.00  0.00    -0.062 C 
ATOM      3  C   UNL     1      29.813 -33.514 -30.012  0.00  0.00    -0.065 C 
ATOM      4  C   UNL     1      29.528 -34.945 -29.606  0.00  0.00    -0.031 C 
ATOM      5  C   UNL     1      30.813 -35.731 -29.322  0.00  0.00    -0.046 C 
ATOM      6  C   UNL     1      31.826 -35.614 -30.481  0.00  0.00    -0.033 C 
ATOM      7  C   UNL     1      32.135 -34.130 -30.787  0.00  0.00    -0.029 C 
ATOM      8  C   UNL     1      32.930 -33.497 -29.625  0.00  0.00    -0.048 C 
ATOM      9  C   UNL     1      33.884 -34.430 -28.878  0.00  0.00    -0.043 C 
ATOM     10  C   UNL     1      34.320 -35.703 -29.615  0.00  0.00    -0.006 C 
ATOM     11  C   UNL     1      35.040 -36.626 -28.608  0.00  0.00    -0.056 C 
ATOM     12  C   UNL     1      35.231 -35.473 -30.818  0.00  0.00    -0.051 C 
ATOM     13  C   UNL     1      34.837 -36.214 -31.865  0.00  0.00    -0.082 C 
ATOM     14  C   UNL     1      33.644 -37.046 -31.565  0.00  0.00    -0.031 C 
ATOM     15  C   UNL     1      33.104 -36.466 -30.236  0.00  0.00    -0.025 C 
ATOM     16  C   UNL     1      30.827 -33.321 -31.146  0.00  0.00    -0.006 C 
ATOM     17  C   UNL     1      30.218 -33.874 -32.466  0.00  0.00    -0.055 C 
ATOM     18  C   UNL     1      31.147 -31.821 -31.444  0.00  0.00    -0.015 C 
ATOM     19  C   UNL     1      30.929 -30.860 -30.274  0.00  0.00    +0.078 C 
ENDROOT
BRANCH   1  22
ATOM     20  C   UNL     1      27.523 -29.657 -30.024  0.00  0.00    +0.240 C 
ATOM     21  O   UNL     1      27.543 -29.187 -28.891  0.00  0.00    -0.271 OA
ATOM     22  N   UNL     1      28.437 -30.567 -30.482  0.00  0.00    -0.303 N 
ATOM     23  H   UNL     1      28.357 -30.907 -31.402  0.00  0.00    +0.000 HD
BRANCH  20  26
ATOM     24  C   UNL     1      25.880 -29.277 -33.514  0.00  0.00    -0.046 C 
ATOM     25  C   UNL     1      26.732 -29.596 -32.329  0.00  0.00    -0.079 C 
ATOM     26  C   UNL     1      26.549 -29.191 -31.056  0.00  0.00    +0.007 C 
ATOM     27  C   UNL     1      25.432 -28.357 -30.513  0.00  0.00    -0.035 C 
ENDBRANCH  20  26
ENDBRANCH   1  22
BRANCH  12  28
ATOM     28  C   UNL     1      36.488 -34.618 -30.764  0.00  0.00    +0.029 C 
ATOM     29  C   UNL     1      36.129 -33.218 -31.296  0.00  0.00    -0.046 C 
BRANCH  28  30
ATOM     30  N   UNL     1      37.621 -35.215 -31.526  0.00  0.00    -0.302 N 
ATOM     31  C   UNL     1      38.600 -34.210 -31.957  0.00  0.00    -0.012 C 
ATOM     32  C   UNL     1      38.322 -36.237 -30.739  0.00  0.00    -0.012 C 
ATOM     33  H   UNL     1      37.201 -35.641 -32.352  0.00  0.00    +0.000 HD
ENDBRANCH  28  30
ENDBRANCH  12  28
BRANCH  19  34
ATOM     34  O   UNL     1      31.181 -29.530 -30.742  0.00  0.00    -0.390 OA
ATOM     35  H   UNL     1      30.512 -29.287 -31.400  0.00  0.00    +0.000 HD
ENDBRANCH  19  34
TORSDOF 5
ENDMDL
MODEL 20
REMARK VINA RESULT:    -6.291     28.588     32.081
REMARK INTER + INTRA:          -8.686
REMARK INTER:                  -7.713
REMARK INTRA:                  -0.973
REMARK UNBOUND:                -0.740
REMARK  Name = cpd209.pdb
REMARK  12 active torsions:
REMARK  status: ('A' for Active; 'I' for Inactive)
REMARK    1  A    between atoms: C_1  and  C_2
REMARK    2  A    between atoms: C_3  and  C_4
REMARK    3  A    between atoms: C_3  and  C_5
REMARK    4  A    between atoms: N_7  and  C_8
REMARK    5  A    between atoms: C_17  and  C_18
REMARK    6  A    between atoms: C_19  and  C_20
REMARK    7  A    between atoms: C_20  and  C_21
REMARK    8  A    between atoms: C_20  and  N_22
REMARK    9  A    between atoms: N_22  and  C_23
REMARK   10  A    between atoms: N_22  and  C_24
REMARK   11  A    between atoms: C_28  and  C_29
REMARK   12  A    between atoms: C_31  and  O_32
REMARK                            x       y       z     vdW  Elec       q    Type
REMARK                         _______ _______ _______ _____ _____    ______ ____
ROOT
ATOM      1  C   UNL     1      51.925 -47.742 -48.191  0.00  0.00    +0.068 C 
ATOM      2  C   UNL     1      53.250 -47.233 -48.673  0.00  0.00    -0.062 C 
ATOM      3  C   UNL     1      54.326 -47.060 -47.883  0.00  0.00    -0.065 C 
ATOM      4  C   UNL     1      55.654 -46.626 -48.468  0.00  0.00    -0.031 C 
ATOM      5  C   UNL     1      56.793 -47.574 -48.078  0.00  0.00    -0.046 C 
ATOM      6  C   UNL     1      56.846 -47.814 -46.554  0.00  0.00    -0.033 C 
ATOM      7  C   UNL     1      55.483 -48.335 -46.038  0.00  0.00    -0.029 C 
ATOM      8  C   UNL     1      55.224 -49.764 -46.560  0.00  0.00    -0.048 C 
ATOM      9  C   UNL     1      56.459 -50.646 -46.746  0.00  0.00    -0.043 C 
ATOM     10  C   UNL     1      57.719 -50.238 -45.972  0.00  0.00    -0.006 C 
ATOM     11  C   UNL     1      58.906 -51.072 -46.501  0.00  0.00    -0.056 C 
ATOM     12  C   UNL     1      57.630 -50.406 -44.458  0.00  0.00    -0.051 C 
ATOM     13  C   UNL     1      58.117 -49.327 -43.826  0.00  0.00    -0.082 C 
ATOM     14  C   UNL     1      58.608 -48.286 -44.764  0.00  0.00    -0.031 C 
ATOM     15  C   UNL     1      58.042 -48.717 -46.138  0.00  0.00    -0.025 C 
ATOM     16  C   UNL     1      54.308 -47.336 -46.375  0.00  0.00    -0.006 C 
ATOM     17  C   UNL     1      54.528 -45.997 -45.615  0.00  0.00    -0.055 C 
ATOM     18  C   UNL     1      52.935 -47.875 -45.859  0.00  0.00    -0.015 C 
ATOM     19  C   UNL     1      52.079 -48.592 -46.904  0.00  0.00    +0.078 C 
ENDROOT
BRANCH   1  22
ATOM     20  C   UNL     1      49.717 -46.651 -48.142  0.00  0.00    +0.240 C 
ATOM     21  O   UNL     1      49.116 -47.689 -48.394  0.00  0.00    -0.271 OA
ATOM     22  N   UNL     1      51.080 -46.574 -48.028  0.00  0.00    -0.303 N 
ATOM     23  H   UNL     1      51.497 -45.705 -47.831  0.00  0.00    +0.000 HD
BRANCH  20  26
ATOM     24  C   UNL     1      46.963 -43.927 -48.314  0.00  0.00    -0.046 C 
ATOM     25  C   UNL     1      47.854 -45.116 -48.482  0.00  0.00    -0.079 C 
ATOM     26  C   UNL     1      49.002 -45.379 -47.825  0.00  0.00    +0.007 C 
ATOM     27  C   UNL     1      49.644 -44.566 -46.745  0.00  0.00    -0.035 C 
ENDBRANCH  20  26
ENDBRANCH   1  22
BRANCH  12  28
ATOM     28  C   UNL     1      57.171 -51.691 -43.784  0.00  0.00    +0.029 C 
ATOM     29  C   UNL     1      55.725 -51.478 -43.299  0.00  0.00    -0.046 C 
BRANCH  28  30
ATOM     30  N   UNL     1      58.065 -52.102 -42.665  0.00  0.00    -0.302 N 
ATOM     31  C   UNL     1      57.395 -52.989 -41.707  0.00  0.00    -0.012 C 
ATOM     32  C   UNL     1      59.271 -52.779 -43.158  0.00  0.00    -0.012 C 
ATOM     33  H   UNL     1      58.323 -51.238 -42.189  0.00  0.00    +0.000 HD
ENDBRANCH  28  30
ENDBRANCH  12  28
BRANCH  19  34
ATOM     34  O   UNL     1      50.832 -48.938 -46.291  0.00  0.00    -0.390 OA
ATOM     35  H   UNL     1      50.921 -48.890 -45.326  0.00  0.00    +0.000 HD
ENDBRANCH  19  34
TORSDOF 5
ENDMDL
