REMARK  Name = cpd209.pdb
REMARK  12 active torsions:
REMARK  status: ('A' for Active; 'I' for Inactive)
REMARK    1  A    between atoms: C_1  and  C_2
REMARK    2  A    between atoms: C_3  and  C_4
REMARK    3  A    between atoms: C_3  and  C_5
REMARK    4  A    between atoms: N_7  and  C_8
REMARK    5  A    between atoms: C_17  and  C_18
REMARK    6  A    between atoms: C_19  and  C_20
REMARK    7  A    between atoms: C_20  and  C_21
REMARK    8  A    between atoms: C_20  and  N_22
REMARK    9  A    between atoms: N_22  and  C_23
REMARK   10  A    between atoms: N_22  and  C_24
REMARK   11  A    between atoms: C_28  and  C_29
REMARK   12  A    between atoms: C_31  and  O_32
REMARK                            x       y       z     vdW  Elec       q    Type
REMARK                         _______ _______ _______ _____ _____    ______ ____
ROOT
ATOM      1  C   UNL     1      -0.638   1.018  -1.094  0.00  0.00    +0.068 C 
ATOM      2  C   UNL     1       0.583   1.739  -1.580  0.00  0.00    -0.062 C 
ATOM      3  C   UNL     1       1.794   1.652  -0.998  0.00  0.00    -0.065 C 
ATOM      4  C   UNL     1       2.997   2.342  -1.606  0.00  0.00    -0.031 C 
ATOM      5  C   UNL     1       4.166   1.376  -1.827  0.00  0.00    -0.046 C 
ATOM      6  C   UNL     1       4.501   0.577  -0.549  0.00  0.00    -0.033 C 
ATOM      7  C   UNL     1       3.249  -0.169  -0.030  0.00  0.00    -0.029 C 
ATOM      8  C   UNL     1       2.860  -1.303  -1.002  0.00  0.00    -0.048 C 
ATOM      9  C   UNL     1       4.015  -1.984  -1.736  0.00  0.00    -0.043 C 
ATOM     10  C   UNL     1       5.409  -1.838  -1.112  0.00  0.00    -0.006 C 
ATOM     11  C   UNL     1       6.453  -2.347  -2.130  0.00  0.00    -0.056 C 
ATOM     12  C   UNL     1       5.605  -2.574   0.210  0.00  0.00    -0.051 C 
ATOM     13  C   UNL     1       6.230  -1.793   1.105  0.00  0.00    -0.082 C 
ATOM     14  C   UNL     1       6.559  -0.450   0.564  0.00  0.00    -0.031 C 
ATOM     15  C   UNL     1       5.732  -0.354  -0.740  0.00  0.00    -0.025 C 
ATOM     16  C   UNL     1       2.056   0.823   0.265  0.00  0.00    -0.006 C 
ATOM     17  C   UNL     1       2.449   1.781   1.425  0.00  0.00    -0.055 C 
ATOM     18  C   UNL     1       0.793   0.059   0.779  0.00  0.00    -0.015 C 
ATOM     19  C   UNL     1      -0.263  -0.249  -0.283  0.00  0.00    +0.078 C 
ENDROOT
BRANCH   1  22
ATOM     20  C   UNL     1      -2.740   1.810  -0.083  0.00  0.00    +0.240 C 
ATOM     21  O   UNL     1      -3.377   0.834  -0.463  0.00  0.00    -0.271 OA
ATOM     22  N   UNL     1      -1.408   1.992  -0.343  0.00  0.00    -0.303 N 
ATOM     23  H   UNL     1      -0.961   2.804  -0.012  0.00  0.00    +0.000 HD
BRANCH  20  26
ATOM     24  C   UNL     1      -3.709   5.346   1.177  0.00  0.00    -0.046 C 
ATOM     25  C   UNL     1      -3.181   4.145   0.461  0.00  0.00    -0.079 C 
ATOM     26  C   UNL     1      -3.341   2.851   0.803  0.00  0.00    +0.007 C 
ATOM     27  C   UNL     1      -4.115   2.300   1.959  0.00  0.00    -0.035 C 
ENDBRANCH  20  26
ENDBRANCH   1  22
BRANCH  12  28
ATOM     28  C   UNL     1       5.251  -4.040   0.413  0.00  0.00    +0.029 C 
ATOM     29  C   UNL     1       3.987  -4.103   1.290  0.00  0.00    -0.046 C 
BRANCH  28  30
ATOM     30  N   UNL     1       6.369  -4.822   1.013  0.00  0.00    -0.302 N 
ATOM     31  C   UNL     1       5.984  -6.203   1.325  0.00  0.00    -0.012 C 
ATOM     32  C   UNL     1       7.540  -4.856   0.128  0.00  0.00    -0.012 C 
ATOM     33  H   UNL     1       6.604  -4.341   1.881  0.00  0.00    +0.000 HD
ENDBRANCH  28  30
ENDBRANCH  12  28
BRANCH  19  34
ATOM     34  O   UNL     1      -1.379  -0.865   0.370  0.00  0.00    -0.390 OA
ATOM     35  H   UNL     1      -1.740  -0.258   1.035  0.00  0.00    +0.000 HD
ENDBRANCH  19  34
TORSDOF 5
