REMARK  Name = cpd109.pdb
REMARK  39 active torsions:
REMARK  status: ('A' for Active; 'I' for Inactive)
REMARK    1  A    between atoms: C_1  and  C_2
REMARK    2  A    between atoms: C_2  and  N_3
REMARK    3  A    between atoms: N_3  and  C_4
REMARK    4  A    between atoms: N_3  and  C_6
REMARK    5  A    between atoms: N_3  and  C_8
REMARK    6  A    between atoms: C_4  and  C_5
REMARK    7  A    between atoms: C_6  and  C_7
REMARK    8  A    between atoms: C_8  and  C_9
REMARK    9  A    between atoms: C_9  and  O_10
REMARK   10  A    between atoms: O_10  and  C_11
REMARK   11  A    between atoms: C_13  and  O_14
REMARK   12  A    between atoms: O_14  and  C_15
REMARK   13  A    between atoms: C_15  and  C_16
REMARK   14  A    between atoms: C_16  and  N_17
REMARK   15  A    between atoms: N_17  and  C_18
REMARK   16  A    between atoms: N_17  and  C_20
REMARK   17  A    between atoms: N_17  and  C_22
REMARK   18  A    between atoms: C_18  and  C_19
REMARK   19  A    between atoms: C_20  and  C_21
REMARK   20  A    between atoms: C_22  and  C_23
REMARK   21  A    between atoms: C_24  and  C_25
REMARK   22  A    between atoms: N_27  and  C_28
REMARK   23  A    between atoms: C_28  and  C_29
REMARK   24  A    between atoms: C_29  and  C_30
REMARK   25  A    between atoms: C_30  and  C_31
REMARK   26  A    between atoms: C_31  and  C_32
REMARK   27  A    between atoms: C_32  and  C_33
REMARK   28  A    between atoms: N_35  and  N_36
REMARK   29  A    between atoms: N_36  and  C_37
REMARK   30  A    between atoms: C_53  and  O_54
REMARK   31  A    between atoms: O_54  and  C_55
REMARK   32  A    between atoms: C_55  and  C_56
REMARK   33  A    between atoms: C_56  and  N_57
REMARK   34  A    between atoms: N_57  and  C_58
REMARK   35  A    between atoms: N_57  and  C_60
REMARK   36  A    between atoms: N_57  and  C_62
REMARK   37  A    between atoms: C_58  and  C_59
REMARK   38  A    between atoms: C_60  and  C_61
REMARK   39  A    between atoms: C_62  and  C_63
REMARK                            x       y       z     vdW  Elec       q    Type
REMARK                         _______ _______ _______ _____ _____    ______ ____
ROOT
ATOM      1  C   UNL     1      -2.024   2.682  -1.545  0.00  0.00    +0.165 A 
ATOM      2  C   UNL     1      -2.891   2.564  -0.453  0.00  0.00    +0.026 A 
ATOM      3  C   UNL     1      -4.018   3.397  -0.338  0.00  0.00    +0.136 A 
ATOM      4  C   UNL     1      -4.293   4.329  -1.362  0.00  0.00    +0.082 A 
ATOM      5  C   UNL     1      -3.388   4.501  -2.414  0.00  0.00    -0.001 A 
ATOM      6  C   UNL     1      -2.209   3.744  -2.440  0.00  0.00    +0.163 A 
ENDROOT
BRANCH   4   7
ATOM      7  C   UNL     1      -5.503   5.190  -1.240  0.00  0.00    +0.248 C 
ATOM      8  O   UNL     1      -6.578   4.686  -0.937  0.00  0.00    -0.270 OA
ATOM      9  N   UNL     1      -5.290   6.547  -1.369  0.00  0.00    -0.311 N 
ATOM     10  H   UNL     1      -4.520   6.876  -1.887  0.00  0.00    +0.000 HD
BRANCH   9  11
ATOM     11  C   UNL     1      -6.199   7.491  -0.742  0.00  0.00    +0.012 C 
BRANCH  11  12
ATOM     12  C   UNL     1      -7.430   7.832  -1.576  0.00  0.00    -0.037 C 
BRANCH  12  13
ATOM     13  C   UNL     1      -8.396   8.669  -0.732  0.00  0.00    -0.051 C 
BRANCH  13  14
ATOM     14  C   UNL     1      -9.658   9.080  -1.495  0.00  0.00    -0.045 C 
BRANCH  14  15
ATOM     15  C   UNL     1     -10.663   9.794  -0.585  0.00  0.00    +0.025 C 
BRANCH  15  16
ATOM     16  C   UNL     1     -11.261   8.838   0.429  0.00  0.00    +0.229 C 
ATOM     17  O   UNL     1     -10.817   8.734   1.570  0.00  0.00    -0.274 OA
ATOM     18  N   UNL     1     -12.282   8.062  -0.091  0.00  0.00    -0.236 N 
ATOM     19  H   UNL     1     -12.751   8.316  -0.919  0.00  0.00    +0.000 HD
BRANCH  18  20
ATOM     20  N   UNL     1     -12.623   6.886   0.620  0.00  0.00    -0.264 N 
ATOM     21  H   UNL     1     -12.458   6.749   1.581  0.00  0.00    +0.000 HD
BRANCH  20  22
ATOM     22  C   UNL     1     -13.237   5.926  -0.237  0.00  0.00    +0.058 A 
ATOM     23  C   UNL     1     -14.637   5.767  -0.252  0.00  0.00    -0.003 A 
ATOM     24  C   UNL     1     -15.168   4.848  -1.159  0.00  0.00    +0.047 A 
ATOM     25  N   UNL     1     -14.409   4.162  -2.049  0.00  0.00    -0.251 NA
ATOM     26  C   UNL     1     -13.084   4.340  -2.059  0.00  0.00    +0.074 A 
ATOM     27  C   UNL     1     -12.335   3.640  -2.995  0.00  0.00    -0.017 A 
ATOM     28  C   UNL     1     -10.950   3.770  -3.057  0.00  0.00    +0.043 A 
ATOM     29 CL   UNL     1     -10.052   2.883  -4.227  0.00  0.00    -0.083 Cl
ATOM     30  C   UNL     1     -10.283   4.598  -2.166  0.00  0.00    -0.043 A 
ATOM     31  C   UNL     1     -11.019   5.302  -1.217  0.00  0.00    -0.049 A 
ATOM     32  C   UNL     1     -12.432   5.204  -1.162  0.00  0.00    +0.023 A 
ATOM     33  C   UNL     1     -16.653   4.603  -1.266  0.00  0.00    -0.010 C 
ATOM     34  C   UNL     1     -17.425   5.038  -0.026  0.00  0.00    -0.047 C 
ATOM     35  C   UNL     1     -17.020   6.453   0.359  0.00  0.00    -0.049 C 
ATOM     36  C   UNL     1     -15.534   6.510   0.710  0.00  0.00    -0.024 C 
ENDBRANCH  20  22
ENDBRANCH  18  20
ENDBRANCH  15  16
ENDBRANCH  14  15
ENDBRANCH  13  14
ENDBRANCH  12  13
ENDBRANCH  11  12
ENDBRANCH   9  11
ENDBRANCH   4   7
BRANCH   1  37
ATOM     37  O   UNL     1      -0.922   1.895  -1.726  0.00  0.00    -0.490 OA
BRANCH  37  38
ATOM     38  C   UNL     1      -1.001   0.503  -1.394  0.00  0.00    +0.076 C 
BRANCH  38  39
ATOM     39  C   UNL     1       0.000   0.000   0.000  0.00  0.00    -0.053 C 
BRANCH  39  40
ATOM     40  N   UNL     1       1.000   0.000   0.000  0.00  0.00    +0.382 N 
BRANCH  40  42
ATOM     41  C   UNL     1       0.477  -2.013  -1.270  0.00  0.00    -0.080 C 
ATOM     42  C   UNL     1       1.000  -1.000   0.000  0.00  0.00    -0.091 C 
ENDBRANCH  40  42
BRANCH  40  43
ATOM     43  C   UNL     1       2.000   0.000   0.000  0.00  0.00    -0.091 C 
ATOM     44  C   UNL     1       2.902  -0.332  -1.398  0.00  0.00    -0.080 C 
ENDBRANCH  40  43
BRANCH  40  45
ATOM     45  C   UNL     1       1.000   1.000   0.000  0.00  0.00    -0.091 C 
ATOM     46  C   UNL     1       1.355   1.736   1.557  0.00  0.00    -0.080 C 
ENDBRANCH  40  45
ENDBRANCH  39  40
ENDBRANCH  38  39
ENDBRANCH  37  38
ENDBRANCH   1  37
BRANCH   6  47
ATOM     47  O   UNL     1      -1.256   4.172  -3.323  0.00  0.00    -0.490 OA
BRANCH  47  48
ATOM     48  C   UNL     1       0.065   4.424  -2.795  0.00  0.00    +0.076 C 
BRANCH  48  49
ATOM     49  C   UNL     1       0.167   5.648  -1.817  0.00  0.00    -0.053 C 
BRANCH  49  50
ATOM     50  N   UNL     1       0.000   5.196   0.000  0.00  0.00    +0.382 N 
BRANCH  50  51
ATOM     51  C   UNL     1      -0.866   5.696   0.000  0.00  0.00    -0.091 C 
ATOM     52  C   UNL     1      -1.357   7.195  -0.161  0.00  0.00    -0.080 C 
ENDBRANCH  50  51
BRANCH  50  53
ATOM     53  C   UNL     1       0.773   6.436   1.151  0.00  0.00    -0.091 C 
ATOM     54  C   UNL     1       0.150   6.313   2.553  0.00  0.00    -0.080 C 
ENDBRANCH  50  53
BRANCH  50  55
ATOM     55  C   UNL     1       0.866   4.696   0.000  0.00  0.00    -0.091 C 
ATOM     56  C   UNL     1       2.340   4.920  -0.519  0.00  0.00    -0.080 C 
ENDBRANCH  50  55
ENDBRANCH  49  50
ENDBRANCH  48  49
ENDBRANCH  47  48
ENDBRANCH   6  47
BRANCH   3  57
ATOM     57  O   UNL     1      -4.869   3.432   0.733  0.00  0.00    -0.493 OA
BRANCH  57  58
ATOM     58  C   UNL     1      -4.881   2.469   1.771  0.00  0.00    +0.075 C 
BRANCH  58  59
ATOM     59  C   UNL     1      -6.137   1.542   1.710  0.00  0.00    -0.053 C 
BRANCH  59  60
ATOM     60  N   UNL     1      -6.500   0.866   0.000  0.00  0.00    +0.382 N 
BRANCH  60  61
ATOM     61  C   UNL     1      -7.366   1.366   0.000  0.00  0.00    -0.091 C 
ATOM     62  C   UNL     1      -8.146   1.405  -1.355  0.00  0.00    -0.080 C 
ENDBRANCH  60  61
BRANCH  60  63
ATOM     63  C   UNL     1      -7.468  -0.685   0.434  0.00  0.00    -0.091 C 
ATOM     64  C   UNL     1      -7.281  -1.840  -0.551  0.00  0.00    -0.080 C 
ENDBRANCH  60  63
BRANCH  60  65
ATOM     65  C   UNL     1      -5.634   0.366   0.000  0.00  0.00    -0.091 C 
ATOM     66  C   UNL     1      -5.123   0.016  -1.447  0.00  0.00    -0.080 C 
ENDBRANCH  60  65
ENDBRANCH  59  60
ENDBRANCH  58  59
ENDBRANCH  57  58
ENDBRANCH   3  57
TORSDOF 30
