MODEL 1
REMARK VINA RESULT:    -6.838      0.000      0.000
REMARK INTER + INTRA:          -7.369
REMARK INTER:                 -15.433
REMARK INTRA:                   8.064
REMARK UNBOUND:                 8.064
REMARK  Name = cpd109.pdb
REMARK  39 active torsions:
REMARK  status: ('A' for Active; 'I' for Inactive)
REMARK    1  A    between atoms: C_1  and  C_2
REMARK    2  A    between atoms: C_2  and  N_3
REMARK    3  A    between atoms: N_3  and  C_4
REMARK    4  A    between atoms: N_3  and  C_6
REMARK    5  A    between atoms: N_3  and  C_8
REMARK    6  A    between atoms: C_4  and  C_5
REMARK    7  A    between atoms: C_6  and  C_7
REMARK    8  A    between atoms: C_8  and  C_9
REMARK    9  A    between atoms: C_9  and  O_10
REMARK   10  A    between atoms: O_10  and  C_11
REMARK   11  A    between atoms: C_13  and  O_14
REMARK   12  A    between atoms: O_14  and  C_15
REMARK   13  A    between atoms: C_15  and  C_16
REMARK   14  A    between atoms: C_16  and  N_17
REMARK   15  A    between atoms: N_17  and  C_18
REMARK   16  A    between atoms: N_17  and  C_20
REMARK   17  A    between atoms: N_17  and  C_22
REMARK   18  A    between atoms: C_18  and  C_19
REMARK   19  A    between atoms: C_20  and  C_21
REMARK   20  A    between atoms: C_22  and  C_23
REMARK   21  A    between atoms: C_24  and  C_25
REMARK   22  A    between atoms: N_27  and  C_28
REMARK   23  A    between atoms: C_28  and  C_29
REMARK   24  A    between atoms: C_29  and  C_30
REMARK   25  A    between atoms: C_30  and  C_31
REMARK   26  A    between atoms: C_31  and  C_32
REMARK   27  A    between atoms: C_32  and  C_33
REMARK   28  A    between atoms: N_35  and  N_36
REMARK   29  A    between atoms: N_36  and  C_37
REMARK   30  A    between atoms: C_53  and  O_54
REMARK   31  A    between atoms: O_54  and  C_55
REMARK   32  A    between atoms: C_55  and  C_56
REMARK   33  A    between atoms: C_56  and  N_57
REMARK   34  A    between atoms: N_57  and  C_58
REMARK   35  A    between atoms: N_57  and  C_60
REMARK   36  A    between atoms: N_57  and  C_62
REMARK   37  A    between atoms: C_58  and  C_59
REMARK   38  A    between atoms: C_60  and  C_61
REMARK   39  A    between atoms: C_62  and  C_63
REMARK                            x       y       z     vdW  Elec       q    Type
REMARK                         _______ _______ _______ _____ _____    ______ ____
ROOT
ATOM      1  C   UNL     1      46.679 -17.350 -37.463  0.00  0.00    +0.165 A 
ATOM      2  C   UNL     1      45.977 -16.411 -36.699  0.00  0.00    +0.026 A 
ATOM      3  C   UNL     1      45.297 -16.799 -35.531  0.00  0.00    +0.136 A 
ATOM      4  C   UNL     1      45.365 -18.145 -35.110  0.00  0.00    +0.082 A 
ATOM      5  C   UNL     1      46.000 -19.098 -35.912  0.00  0.00    -0.001 A 
ATOM      6  C   UNL     1      46.564 -18.707 -37.133  0.00  0.00    +0.163 A 
ENDROOT
BRANCH   4   7
ATOM      7  C   UNL     1      44.660 -18.540 -33.858  0.00  0.00    +0.248 C 
ATOM      8  O   UNL     1      45.253 -18.493 -32.787  0.00  0.00    -0.270 OA
ATOM      9  N   UNL     1      43.317 -18.827 -33.991  0.00  0.00    -0.311 N 
ATOM     10  H   UNL     1      42.964 -19.137 -34.856  0.00  0.00    +0.000 HD
BRANCH   9  11
ATOM     11  C   UNL     1      42.422 -18.671 -32.857  0.00  0.00    +0.012 C 
BRANCH  11  12
ATOM     12  C   UNL     1      40.939 -18.758 -33.205  0.00  0.00    -0.037 C 
BRANCH  12  13
ATOM     13  C   UNL     1      40.299 -17.377 -33.040  0.00  0.00    -0.051 C 
BRANCH  13  14
ATOM     14  C   UNL     1      38.770 -17.426 -32.984  0.00  0.00    -0.045 C 
BRANCH  14  15
ATOM     15  C   UNL     1      38.141 -17.025 -34.322  0.00  0.00    +0.025 C 
BRANCH  15  16
ATOM     16  C   UNL     1      37.459 -18.206 -34.984  0.00  0.00    +0.229 C 
ATOM     17  O   UNL     1      36.377 -18.638 -34.596  0.00  0.00    -0.274 OA
ATOM     18  N   UNL     1      38.215 -18.774 -35.995  0.00  0.00    -0.236 N 
ATOM     19  H   UNL     1      38.956 -18.284 -36.421  0.00  0.00    +0.000 HD
BRANCH  18  20
ATOM     20  N   UNL     1      37.876 -20.090 -36.392  0.00  0.00    -0.264 N 
ATOM     21  H   UNL     1      36.969 -20.378 -36.645  0.00  0.00    +0.000 HD
BRANCH  20  22
ATOM     22  C   UNL     1      39.018 -20.943 -36.376  0.00  0.00    +0.058 A 
ATOM     23  C   UNL     1      39.799 -21.120 -37.536  0.00  0.00    -0.003 A 
ATOM     24  C   UNL     1      40.934 -21.925 -37.427  0.00  0.00    +0.047 A 
ATOM     25  N   UNL     1      41.339 -22.481 -36.259  0.00  0.00    -0.251 NA
ATOM     26  C   UNL     1      40.618 -22.283 -35.151  0.00  0.00    +0.074 A 
ATOM     27  C   UNL     1      41.069 -22.847 -33.965  0.00  0.00    -0.017 A 
ATOM     28  C   UNL     1      40.363 -22.689 -32.775  0.00  0.00    +0.043 A 
ATOM     29 CL   UNL     1      40.948 -23.407 -31.324  0.00  0.00    -0.083 Cl
ATOM     30  C   UNL     1      39.177 -21.971 -32.753  0.00  0.00    -0.043 A 
ATOM     31  C   UNL     1      38.708 -21.404 -33.935  0.00  0.00    -0.049 A 
ATOM     32  C   UNL     1      39.431 -21.530 -35.148  0.00  0.00    +0.023 A 
ATOM     33  C   UNL     1      41.846 -22.177 -38.603  0.00  0.00    -0.010 C 
ATOM     34  C   UNL     1      41.179 -21.914 -39.948  0.00  0.00    -0.047 C 
ATOM     35  C   UNL     1      40.500 -20.554 -39.925  0.00  0.00    -0.049 C 
ATOM     36  C   UNL     1      39.402 -20.519 -38.864  0.00  0.00    -0.024 C 
ENDBRANCH  20  22
ENDBRANCH  18  20
ENDBRANCH  15  16
ENDBRANCH  14  15
ENDBRANCH  13  14
ENDBRANCH  12  13
ENDBRANCH  11  12
ENDBRANCH   9  11
ENDBRANCH   4   7
BRANCH   1  37
ATOM     37  O   UNL     1      47.373 -17.037 -38.597  0.00  0.00    -0.490 OA
BRANCH  37  38
ATOM     38  C   UNL     1      46.941 -15.924 -39.391  0.00  0.00    +0.076 C 
BRANCH  38  39
ATOM     39  C   UNL     1      47.953 -14.456 -39.249  0.00  0.00    -0.053 C 
BRANCH  39  40
ATOM     40  N   UNL     1      47.986 -13.731 -39.936  0.00  0.00    +0.382 N 
BRANCH  40  42
ATOM     41  C   UNL     1      50.392 -13.424 -39.702  0.00  0.00    -0.080 C 
ATOM     42  C   UNL     1      48.890 -14.045 -40.224  0.00  0.00    -0.091 C 
ENDBRANCH  40  42
BRANCH  40  43
ATOM     43  C   UNL     1      48.019 -13.005 -40.624  0.00  0.00    -0.091 C 
ATOM     44  C   UNL     1      47.341 -13.193 -42.167  0.00  0.00    -0.080 C 
ENDBRANCH  40  43
BRANCH  40  45
ATOM     45  C   UNL     1      47.081 -13.416 -39.648  0.00  0.00    -0.091 C 
ATOM     46  C   UNL     1      47.093 -12.234 -38.347  0.00  0.00    -0.080 C 
ENDBRANCH  40  45
ENDBRANCH  39  40
ENDBRANCH  38  39
ENDBRANCH  37  38
ENDBRANCH   1  37
BRANCH   6  47
ATOM     47  O   UNL     1      46.900 -19.728 -37.979  0.00  0.00    -0.490 OA
BRANCH  47  48
ATOM     48  C   UNL     1      46.222 -19.776 -39.254  0.00  0.00    +0.076 C 
BRANCH  48  49
ATOM     49  C   UNL     1      45.796 -21.212 -39.726  0.00  0.00    -0.053 C 
BRANCH  49  50
ATOM     50  N   UNL     1      46.511 -21.719 -41.389  0.00  0.00    +0.382 N 
BRANCH  50  51
ATOM     51  C   UNL     1      45.653 -22.202 -41.562  0.00  0.00    -0.091 C 
ATOM     52  C   UNL     1      44.352 -22.005 -42.447  0.00  0.00    -0.080 C 
ENDBRANCH  50  51
BRANCH  50  53
ATOM     53  C   UNL     1      47.458 -23.319 -41.336  0.00  0.00    -0.091 C 
ATOM     54  C   UNL     1      47.554 -23.920 -42.750  0.00  0.00    -0.080 C 
ENDBRANCH  50  53
BRANCH  50  55
ATOM     55  C   UNL     1      47.369 -21.236 -41.215  0.00  0.00    -0.091 C 
ATOM     56  C   UNL     1      48.359 -20.298 -42.011  0.00  0.00    -0.080 C 
ENDBRANCH  50  55
ENDBRANCH  49  50
ENDBRANCH  48  49
ENDBRANCH  47  48
ENDBRANCH   6  47
BRANCH   3  57
ATOM     57  O   UNL     1      44.503 -15.985 -34.770  0.00  0.00    -0.493 OA
BRANCH  57  58
ATOM     58  C   UNL     1      43.543 -15.090 -35.301  0.00  0.00    +0.075 C 
BRANCH  58  59
ATOM     59  C   UNL     1      42.187 -15.794 -35.628  0.00  0.00    -0.053 C 
BRANCH  59  60
ATOM     60  N   UNL     1      42.079 -16.458 -37.377  0.00  0.00    +0.382 N 
BRANCH  60  61
ATOM     61  C   UNL     1      42.157 -15.523 -37.723  0.00  0.00    -0.091 C 
ATOM     62  C   UNL     1      43.192 -15.292 -38.873  0.00  0.00    -0.080 C 
ENDBRANCH  60  61
BRANCH  60  63
ATOM     63  C   UNL     1      40.228 -16.347 -37.680  0.00  0.00    -0.091 C 
ATOM     64  C   UNL     1      39.785 -16.841 -39.059  0.00  0.00    -0.080 C 
ENDBRANCH  60  63
BRANCH  60  65
ATOM     65  C   UNL     1      42.001 -17.393 -37.031  0.00  0.00    -0.091 C 
ATOM     66  C   UNL     1      42.896 -18.420 -37.819  0.00  0.00    -0.080 C 
ENDBRANCH  60  65
ENDBRANCH  59  60
ENDBRANCH  58  59
ENDBRANCH  57  58
ENDBRANCH   3  57
TORSDOF 30
ENDMDL
MODEL 2
REMARK VINA RESULT:    -6.734      2.511      6.419
REMARK INTER + INTRA:          -7.133
REMARK INTER:                 -15.143
REMARK INTRA:                   8.010
REMARK UNBOUND:                 8.064
REMARK  Name = cpd109.pdb
REMARK  39 active torsions:
REMARK  status: ('A' for Active; 'I' for Inactive)
REMARK    1  A    between atoms: C_1  and  C_2
REMARK    2  A    between atoms: C_2  and  N_3
REMARK    3  A    between atoms: N_3  and  C_4
REMARK    4  A    between atoms: N_3  and  C_6
REMARK    5  A    between atoms: N_3  and  C_8
REMARK    6  A    between atoms: C_4  and  C_5
REMARK    7  A    between atoms: C_6  and  C_7
REMARK    8  A    between atoms: C_8  and  C_9
REMARK    9  A    between atoms: C_9  and  O_10
REMARK   10  A    between atoms: O_10  and  C_11
REMARK   11  A    between atoms: C_13  and  O_14
REMARK   12  A    between atoms: O_14  and  C_15
REMARK   13  A    between atoms: C_15  and  C_16
REMARK   14  A    between atoms: C_16  and  N_17
REMARK   15  A    between atoms: N_17  and  C_18
REMARK   16  A    between atoms: N_17  and  C_20
REMARK   17  A    between atoms: N_17  and  C_22
REMARK   18  A    between atoms: C_18  and  C_19
REMARK   19  A    between atoms: C_20  and  C_21
REMARK   20  A    between atoms: C_22  and  C_23
REMARK   21  A    between atoms: C_24  and  C_25
REMARK   22  A    between atoms: N_27  and  C_28
REMARK   23  A    between atoms: C_28  and  C_29
REMARK   24  A    between atoms: C_29  and  C_30
REMARK   25  A    between atoms: C_30  and  C_31
REMARK   26  A    between atoms: C_31  and  C_32
REMARK   27  A    between atoms: C_32  and  C_33
REMARK   28  A    between atoms: N_35  and  N_36
REMARK   29  A    between atoms: N_36  and  C_37
REMARK   30  A    between atoms: C_53  and  O_54
REMARK   31  A    between atoms: O_54  and  C_55
REMARK   32  A    between atoms: C_55  and  C_56
REMARK   33  A    between atoms: C_56  and  N_57
REMARK   34  A    between atoms: N_57  and  C_58
REMARK   35  A    between atoms: N_57  and  C_60
REMARK   36  A    between atoms: N_57  and  C_62
REMARK   37  A    between atoms: C_58  and  C_59
REMARK   38  A    between atoms: C_60  and  C_61
REMARK   39  A    between atoms: C_62  and  C_63
REMARK                            x       y       z     vdW  Elec       q    Type
REMARK                         _______ _______ _______ _____ _____    ______ ____
ROOT
ATOM      1  C   UNL     1      43.996 -20.032 -36.934  0.00  0.00    +0.165 A 
ATOM      2  C   UNL     1      44.782 -18.881 -36.799  0.00  0.00    +0.026 A 
ATOM      3  C   UNL     1      44.859 -18.206 -35.568  0.00  0.00    +0.136 A 
ATOM      4  C   UNL     1      44.169 -18.726 -34.452  0.00  0.00    +0.082 A 
ATOM      5  C   UNL     1      43.324 -19.830 -34.603  0.00  0.00    -0.001 A 
ATOM      6  C   UNL     1      43.168 -20.411 -35.869  0.00  0.00    +0.163 A 
ENDROOT
BRANCH   4   7
ATOM      7  C   UNL     1      44.278 -18.015 -33.147  0.00  0.00    +0.248 C 
ATOM      8  O   UNL     1      45.021 -18.453 -32.277  0.00  0.00    -0.270 OA
ATOM      9  N   UNL     1      43.600 -16.816 -33.059  0.00  0.00    -0.311 N 
ATOM     10  H   UNL     1      42.812 -16.654 -33.627  0.00  0.00    +0.000 HD
BRANCH   9  11
ATOM     11  C   UNL     1      44.047 -15.792 -32.130  0.00  0.00    +0.012 C 
BRANCH  11  12
ATOM     12  C   UNL     1      43.460 -14.408 -32.386  0.00  0.00    -0.037 C 
BRANCH  12  13
ATOM     13  C   UNL     1      42.648 -14.435 -33.684  0.00  0.00    -0.051 C 
BRANCH  13  14
ATOM     14  C   UNL     1      41.203 -13.964 -33.498  0.00  0.00    -0.045 C 
BRANCH  14  15
ATOM     15  C   UNL     1      40.494 -14.738 -32.381  0.00  0.00    +0.025 C 
BRANCH  15  16
ATOM     16  C   UNL     1      40.296 -16.193 -32.762  0.00  0.00    +0.229 C 
ATOM     17  O   UNL     1      40.818 -17.110 -32.133  0.00  0.00    -0.274 OA
ATOM     18  N   UNL     1      39.547 -16.356 -33.915  0.00  0.00    -0.236 N 
ATOM     19  H   UNL     1      38.973 -15.635 -34.262  0.00  0.00    +0.000 HD
BRANCH  18  20
ATOM     20  N   UNL     1      39.644 -17.606 -34.574  0.00  0.00    -0.264 N 
ATOM     21  H   UNL     1      40.030 -18.418 -34.173  0.00  0.00    +0.000 HD
BRANCH  20  22
ATOM     22  C   UNL     1      39.109 -17.535 -35.893  0.00  0.00    +0.058 A 
ATOM     23  C   UNL     1      39.933 -17.200 -36.986  0.00  0.00    -0.003 A 
ATOM     24  C   UNL     1      39.349 -17.207 -38.255  0.00  0.00    +0.047 A 
ATOM     25  N   UNL     1      38.063 -17.575 -38.477  0.00  0.00    -0.251 NA
ATOM     26  C   UNL     1      37.292 -17.928 -37.443  0.00  0.00    +0.074 A 
ATOM     27  C   UNL     1      35.986 -18.319 -37.703  0.00  0.00    -0.017 A 
ATOM     28  C   UNL     1      35.123 -18.691 -36.675  0.00  0.00    +0.043 A 
ATOM     29 CL   UNL     1      33.508 -19.166 -37.033  0.00  0.00    -0.083 Cl
ATOM     30  C   UNL     1      35.552 -18.662 -35.356  0.00  0.00    -0.043 A 
ATOM     31  C   UNL     1      36.857 -18.265 -35.078  0.00  0.00    -0.049 A 
ATOM     32  C   UNL     1      37.755 -17.914 -36.116  0.00  0.00    +0.023 A 
ATOM     33  C   UNL     1      40.140 -16.873 -39.496  0.00  0.00    -0.010 C 
ATOM     34  C   UNL     1      41.408 -16.080 -39.205  0.00  0.00    -0.047 C 
ATOM     35  C   UNL     1      42.192 -16.758 -38.092  0.00  0.00    -0.049 C 
ATOM     36  C   UNL     1      41.375 -16.790 -36.801  0.00  0.00    -0.024 C 
ENDBRANCH  20  22
ENDBRANCH  18  20
ENDBRANCH  15  16
ENDBRANCH  14  15
ENDBRANCH  13  14
ENDBRANCH  12  13
ENDBRANCH  11  12
ENDBRANCH   9  11
ENDBRANCH   4   7
BRANCH   1  37
ATOM     37  O   UNL     1      43.890 -20.744 -38.095  0.00  0.00    -0.490 OA
BRANCH  37  38
ATOM     38  C   UNL     1      45.074 -21.010 -38.858  0.00  0.00    +0.076 C 
BRANCH  38  39
ATOM     39  C   UNL     1      45.263 -20.014 -40.331  0.00  0.00    -0.053 C 
BRANCH  39  40
ATOM     40  N   UNL     1      45.926 -20.206 -41.055  0.00  0.00    +0.382 N 
BRANCH  40  42
ATOM     41  C   UNL     1      46.790 -17.996 -40.502  0.00  0.00    -0.080 C 
ATOM     42  C   UNL     1      46.623 -19.693 -40.553  0.00  0.00    -0.091 C 
ENDBRANCH  40  42
BRANCH  40  43
ATOM     43  C   UNL     1      46.589 -20.398 -41.779  0.00  0.00    -0.091 C 
ATOM     44  C   UNL     1      47.538 -21.804 -41.783  0.00  0.00    -0.080 C 
ENDBRANCH  40  43
BRANCH  40  45
ATOM     45  C   UNL     1      45.230 -20.719 -41.557  0.00  0.00    -0.091 C 
ATOM     46  C   UNL     1      44.346 -19.782 -42.755  0.00  0.00    -0.080 C 
ENDBRANCH  40  45
ENDBRANCH  39  40
ENDBRANCH  38  39
ENDBRANCH  37  38
ENDBRANCH   1  37
BRANCH   6  47
ATOM     47  O   UNL     1      42.120 -21.281 -35.991  0.00  0.00    -0.490 OA
BRANCH  47  48
ATOM     48  C   UNL     1      40.898 -20.940 -35.301  0.00  0.00    +0.076 C 
BRANCH  48  49
ATOM     49  C   UNL     1      39.678 -21.880 -35.608  0.00  0.00    -0.053 C 
BRANCH  49  50
ATOM     50  N   UNL     1      38.967 -22.736 -34.093  0.00  0.00    +0.382 N 
BRANCH  50  51
ATOM     51  C   UNL     1      39.852 -23.190 -33.988  0.00  0.00    -0.091 C 
ATOM     52  C   UNL     1      40.880 -23.503 -32.823  0.00  0.00    -0.080 C 
ENDBRANCH  50  51
BRANCH  50  53
ATOM     53  C   UNL     1      38.128 -24.352 -34.475  0.00  0.00    -0.091 C 
ATOM     54  C   UNL     1      37.597 -24.989 -33.179  0.00  0.00    -0.080 C 
ENDBRANCH  50  53
BRANCH  50  55
ATOM     55  C   UNL     1      38.082 -22.283 -34.199  0.00  0.00    -0.091 C 
ATOM     56  C   UNL     1      37.108 -21.410 -33.314  0.00  0.00    -0.080 C 
ENDBRANCH  50  55
ENDBRANCH  49  50
ENDBRANCH  48  49
ENDBRANCH  47  48
ENDBRANCH   6  47
BRANCH   3  57
ATOM     57  O   UNL     1      45.514 -17.023 -35.355  0.00  0.00    -0.493 OA
BRANCH  57  58
ATOM     58  C   UNL     1      45.182 -15.804 -35.995  0.00  0.00    +0.075 C 
BRANCH  58  59
ATOM     59  C   UNL     1      45.901 -15.640 -37.373  0.00  0.00    -0.053 C 
BRANCH  59  60
ATOM     60  N   UNL     1      45.784 -13.911 -38.088  0.00  0.00    +0.382 N 
BRANCH  60  61
ATOM     61  C   UNL     1      44.867 -14.126 -38.425  0.00  0.00    -0.091 C 
ATOM     62  C   UNL     1      43.757 -13.061 -38.145  0.00  0.00    -0.080 C 
ENDBRANCH  60  61
BRANCH  60  63
ATOM     63  C   UNL     1      46.424 -14.209 -39.830  0.00  0.00    -0.091 C 
ATOM     64  C   UNL     1      46.833 -12.937 -40.576  0.00  0.00    -0.080 C 
ENDBRANCH  60  63
BRANCH  60  65
ATOM     65  C   UNL     1      46.701 -13.697 -37.752  0.00  0.00    -0.091 C 
ATOM     66  C   UNL     1      46.730 -12.452 -36.789  0.00  0.00    -0.080 C 
ENDBRANCH  60  65
ENDBRANCH  59  60
ENDBRANCH  58  59
ENDBRANCH  57  58
ENDBRANCH   3  57
TORSDOF 30
ENDMDL
MODEL 3
REMARK VINA RESULT:    -6.724      2.358      6.774
REMARK INTER + INTRA:          -7.113
REMARK INTER:                 -15.885
REMARK INTRA:                   8.773
REMARK UNBOUND:                 8.064
REMARK  Name = cpd109.pdb
REMARK  39 active torsions:
REMARK  status: ('A' for Active; 'I' for Inactive)
REMARK    1  A    between atoms: C_1  and  C_2
REMARK    2  A    between atoms: C_2  and  N_3
REMARK    3  A    between atoms: N_3  and  C_4
REMARK    4  A    between atoms: N_3  and  C_6
REMARK    5  A    between atoms: N_3  and  C_8
REMARK    6  A    between atoms: C_4  and  C_5
REMARK    7  A    between atoms: C_6  and  C_7
REMARK    8  A    between atoms: C_8  and  C_9
REMARK    9  A    between atoms: C_9  and  O_10
REMARK   10  A    between atoms: O_10  and  C_11
REMARK   11  A    between atoms: C_13  and  O_14
REMARK   12  A    between atoms: O_14  and  C_15
REMARK   13  A    between atoms: C_15  and  C_16
REMARK   14  A    between atoms: C_16  and  N_17
REMARK   15  A    between atoms: N_17  and  C_18
REMARK   16  A    between atoms: N_17  and  C_20
REMARK   17  A    between atoms: N_17  and  C_22
REMARK   18  A    between atoms: C_18  and  C_19
REMARK   19  A    between atoms: C_20  and  C_21
REMARK   20  A    between atoms: C_22  and  C_23
REMARK   21  A    between atoms: C_24  and  C_25
REMARK   22  A    between atoms: N_27  and  C_28
REMARK   23  A    between atoms: C_28  and  C_29
REMARK   24  A    between atoms: C_29  and  C_30
REMARK   25  A    between atoms: C_30  and  C_31
REMARK   26  A    between atoms: C_31  and  C_32
REMARK   27  A    between atoms: C_32  and  C_33
REMARK   28  A    between atoms: N_35  and  N_36
REMARK   29  A    between atoms: N_36  and  C_37
REMARK   30  A    between atoms: C_53  and  O_54
REMARK   31  A    between atoms: O_54  and  C_55
REMARK   32  A    between atoms: C_55  and  C_56
REMARK   33  A    between atoms: C_56  and  N_57
REMARK   34  A    between atoms: N_57  and  C_58
REMARK   35  A    between atoms: N_57  and  C_60
REMARK   36  A    between atoms: N_57  and  C_62
REMARK   37  A    between atoms: C_58  and  C_59
REMARK   38  A    between atoms: C_60  and  C_61
REMARK   39  A    between atoms: C_62  and  C_63
REMARK                            x       y       z     vdW  Elec       q    Type
REMARK                         _______ _______ _______ _____ _____    ______ ____
ROOT
ATOM      1  C   UNL     1      45.297 -16.601 -39.635  0.00  0.00    +0.165 A 
ATOM      2  C   UNL     1      44.914 -17.946 -39.690  0.00  0.00    +0.026 A 
ATOM      3  C   UNL     1      45.134 -18.800 -38.595  0.00  0.00    +0.136 A 
ATOM      4  C   UNL     1      45.706 -18.275 -37.416  0.00  0.00    +0.082 A 
ATOM      5  C   UNL     1      46.159 -16.952 -37.386  0.00  0.00    -0.001 A 
ATOM      6  C   UNL     1      46.041 -16.157 -38.534  0.00  0.00    +0.163 A 
ENDROOT
BRANCH   4   7
ATOM      7  C   UNL     1      45.912 -19.185 -36.254  0.00  0.00    +0.248 C 
ATOM      8  O   UNL     1      47.050 -19.483 -35.912  0.00  0.00    -0.270 OA
ATOM      9  N   UNL     1      44.774 -19.540 -35.560  0.00  0.00    -0.311 N 
ATOM     10  H   UNL     1      43.901 -19.536 -36.015  0.00  0.00    +0.000 HD
BRANCH   9  11
ATOM     11  C   UNL     1      44.861 -19.919 -34.160  0.00  0.00    +0.012 C 
BRANCH  11  12
ATOM     12  C   UNL     1      44.249 -18.909 -33.193  0.00  0.00    -0.037 C 
BRANCH  12  13
ATOM     13  C   UNL     1      44.923 -17.548 -33.391  0.00  0.00    -0.051 C 
BRANCH  13  14
ATOM     14  C   UNL     1      43.969 -16.478 -33.928  0.00  0.00    -0.045 C 
BRANCH  14  15
ATOM     15  C   UNL     1      42.634 -16.480 -33.176  0.00  0.00    +0.025 C 
BRANCH  15  16
ATOM     16  C   UNL     1      41.473 -16.721 -34.120  0.00  0.00    +0.229 C 
ATOM     17  O   UNL     1      40.422 -16.089 -34.038  0.00  0.00    -0.274 OA
ATOM     18  N   UNL     1      41.698 -17.759 -35.007  0.00  0.00    -0.236 N 
ATOM     19  H   UNL     1      42.607 -18.090 -35.192  0.00  0.00    +0.000 HD
BRANCH  18  20
ATOM     20  N   UNL     1      40.563 -18.326 -35.637  0.00  0.00    -0.264 N 
ATOM     21  H   UNL     1      39.767 -17.816 -35.911  0.00  0.00    +0.000 HD
BRANCH  20  22
ATOM     22  C   UNL     1      40.725 -19.730 -35.821  0.00  0.00    +0.058 A 
ATOM     23  C   UNL     1      40.506 -20.625 -34.755  0.00  0.00    -0.003 A 
ATOM     24  C   UNL     1      40.628 -21.989 -35.028  0.00  0.00    +0.047 A 
ATOM     25  N   UNL     1      40.883 -22.477 -36.267  0.00  0.00    -0.251 NA
ATOM     26  C   UNL     1      41.054 -21.629 -37.286  0.00  0.00    +0.074 A 
ATOM     27  C   UNL     1      41.293 -22.157 -38.547  0.00  0.00    -0.017 A 
ATOM     28  C   UNL     1      41.490 -21.333 -39.652  0.00  0.00    +0.043 A 
ATOM     29 CL   UNL     1      41.789 -22.023 -41.201  0.00  0.00    -0.083 Cl
ATOM     30  C   UNL     1      41.466 -19.953 -39.511  0.00  0.00    -0.043 A 
ATOM     31  C   UNL     1      41.234 -19.407 -38.251  0.00  0.00    -0.049 A 
ATOM     32  C   UNL     1      41.001 -20.233 -37.123  0.00  0.00    +0.023 A 
ATOM     33  C   UNL     1      40.408 -23.036 -33.964  0.00  0.00    -0.010 C 
ATOM     34  C   UNL     1      40.542 -22.491 -32.547  0.00  0.00    -0.047 C 
ATOM     35  C   UNL     1      39.708 -21.226 -32.405  0.00  0.00    -0.049 C 
ATOM     36  C   UNL     1      40.211 -20.141 -33.355  0.00  0.00    -0.024 C 
ENDBRANCH  20  22
ENDBRANCH  18  20
ENDBRANCH  15  16
ENDBRANCH  14  15
ENDBRANCH  13  14
ENDBRANCH  12  13
ENDBRANCH  11  12
ENDBRANCH   9  11
ENDBRANCH   4   7
BRANCH   1  37
ATOM     37  O   UNL     1      45.099 -15.715 -40.656  0.00  0.00    -0.490 OA
BRANCH  37  38
ATOM     38  C   UNL     1      43.758 -15.384 -41.037  0.00  0.00    +0.076 C 
BRANCH  38  39
ATOM     39  C   UNL     1      42.823 -14.481 -39.809  0.00  0.00    -0.053 C 
BRANCH  39  40
ATOM     40  N   UNL     1      41.860 -14.652 -39.600  0.00  0.00    +0.382 N 
BRANCH  40  42
ATOM     41  C   UNL     1      42.611 -14.829 -37.289  0.00  0.00    -0.080 C 
ATOM     42  C   UNL     1      42.130 -15.274 -38.865  0.00  0.00    -0.091 C 
ENDBRANCH  40  42
BRANCH  40  43
ATOM     43  C   UNL     1      40.897 -14.824 -39.392  0.00  0.00    -0.091 C 
ATOM     44  C   UNL     1      40.060 -16.155 -40.029  0.00  0.00    -0.080 C 
ENDBRANCH  40  43
BRANCH  40  45
ATOM     45  C   UNL     1      41.590 -14.031 -40.336  0.00  0.00    -0.091 C 
ATOM     46  C   UNL     1      41.626 -12.326 -39.910  0.00  0.00    -0.080 C 
ENDBRANCH  40  45
ENDBRANCH  39  40
ENDBRANCH  38  39
ENDBRANCH  37  38
ENDBRANCH   1  37
BRANCH   6  47
ATOM     47  O   UNL     1      46.759 -14.993 -38.518  0.00  0.00    -0.490 OA
BRANCH  47  48
ATOM     48  C   UNL     1      46.176 -13.869 -37.824  0.00  0.00    +0.076 C 
BRANCH  48  49
ATOM     49  C   UNL     1      46.531 -12.461 -38.423  0.00  0.00    -0.053 C 
BRANCH  49  50
ATOM     50  N   UNL     1      48.033 -11.649 -37.638  0.00  0.00    +0.382 N 
BRANCH  50  51
ATOM     51  C   UNL     1      47.412 -11.258 -36.958  0.00  0.00    -0.091 C 
ATOM     52  C   UNL     1      47.258 -11.243 -35.380  0.00  0.00    -0.080 C 
ENDBRANCH  50  51
BRANCH  50  53
ATOM     53  C   UNL     1      48.416  -9.964 -38.328  0.00  0.00    -0.091 C 
ATOM     54  C   UNL     1      49.808  -9.507 -37.858  0.00  0.00    -0.080 C 
ENDBRANCH  50  53
BRANCH  50  55
ATOM     55  C   UNL     1      48.654 -12.039 -38.317  0.00  0.00    -0.091 C 
ATOM     56  C   UNL     1      49.839 -13.081 -38.349  0.00  0.00    -0.080 C 
ENDBRANCH  50  55
ENDBRANCH  49  50
ENDBRANCH  48  49
ENDBRANCH  47  48
ENDBRANCH   6  47
BRANCH   3  57
ATOM     57  O   UNL     1      44.890 -20.146 -38.581  0.00  0.00    -0.493 OA
BRANCH  57  58
ATOM     58  C   UNL     1      45.857 -21.132 -38.894  0.00  0.00    +0.075 C 
BRANCH  58  59
ATOM     59  C   UNL     1      45.455 -21.989 -40.137  0.00  0.00    -0.053 C 
BRANCH  59  60
ATOM     60  N   UNL     1      46.043 -21.281 -41.770  0.00  0.00    +0.382 N 
BRANCH  60  61
ATOM     61  C   UNL     1      45.112 -21.358 -42.125  0.00  0.00    -0.091 C 
ATOM     62  C   UNL     1      44.523 -20.083 -42.812  0.00  0.00    -0.080 C 
ENDBRANCH  60  61
BRANCH  60  63
ATOM     63  C   UNL     1      46.462 -22.857 -42.705  0.00  0.00    -0.091 C 
ATOM     64  C   UNL     1      47.673 -23.612 -42.155  0.00  0.00    -0.080 C 
ENDBRANCH  60  63
BRANCH  60  65
ATOM     65  C   UNL     1      46.975 -21.204 -41.415  0.00  0.00    -0.091 C 
ATOM     66  C   UNL     1      47.647 -19.818 -41.737  0.00  0.00    -0.080 C 
ENDBRANCH  60  65
ENDBRANCH  59  60
ENDBRANCH  58  59
ENDBRANCH  57  58
ENDBRANCH   3  57
TORSDOF 30
ENDMDL
MODEL 4
REMARK VINA RESULT:    -6.709      2.496      7.067
REMARK INTER + INTRA:          -7.077
REMARK INTER:                 -15.113
REMARK INTRA:                   8.036
REMARK UNBOUND:                 8.064
REMARK  Name = cpd109.pdb
REMARK  39 active torsions:
REMARK  status: ('A' for Active; 'I' for Inactive)
REMARK    1  A    between atoms: C_1  and  C_2
REMARK    2  A    between atoms: C_2  and  N_3
REMARK    3  A    between atoms: N_3  and  C_4
REMARK    4  A    between atoms: N_3  and  C_6
REMARK    5  A    between atoms: N_3  and  C_8
REMARK    6  A    between atoms: C_4  and  C_5
REMARK    7  A    between atoms: C_6  and  C_7
REMARK    8  A    between atoms: C_8  and  C_9
REMARK    9  A    between atoms: C_9  and  O_10
REMARK   10  A    between atoms: O_10  and  C_11
REMARK   11  A    between atoms: C_13  and  O_14
REMARK   12  A    between atoms: O_14  and  C_15
REMARK   13  A    between atoms: C_15  and  C_16
REMARK   14  A    between atoms: C_16  and  N_17
REMARK   15  A    between atoms: N_17  and  C_18
REMARK   16  A    between atoms: N_17  and  C_20
REMARK   17  A    between atoms: N_17  and  C_22
REMARK   18  A    between atoms: C_18  and  C_19
REMARK   19  A    between atoms: C_20  and  C_21
REMARK   20  A    between atoms: C_22  and  C_23
REMARK   21  A    between atoms: C_24  and  C_25
REMARK   22  A    between atoms: N_27  and  C_28
REMARK   23  A    between atoms: C_28  and  C_29
REMARK   24  A    between atoms: C_29  and  C_30
REMARK   25  A    between atoms: C_30  and  C_31
REMARK   26  A    between atoms: C_31  and  C_32
REMARK   27  A    between atoms: C_32  and  C_33
REMARK   28  A    between atoms: N_35  and  N_36
REMARK   29  A    between atoms: N_36  and  C_37
REMARK   30  A    between atoms: C_53  and  O_54
REMARK   31  A    between atoms: O_54  and  C_55
REMARK   32  A    between atoms: C_55  and  C_56
REMARK   33  A    between atoms: C_56  and  N_57
REMARK   34  A    between atoms: N_57  and  C_58
REMARK   35  A    between atoms: N_57  and  C_60
REMARK   36  A    between atoms: N_57  and  C_62
REMARK   37  A    between atoms: C_58  and  C_59
REMARK   38  A    between atoms: C_60  and  C_61
REMARK   39  A    between atoms: C_62  and  C_63
REMARK                            x       y       z     vdW  Elec       q    Type
REMARK                         _______ _______ _______ _____ _____    ______ ____
ROOT
ATOM      1  C   UNL     1      43.792 -15.038 -38.129  0.00  0.00    +0.165 A 
ATOM      2  C   UNL     1      44.084 -16.352 -38.514  0.00  0.00    +0.026 A 
ATOM      3  C   UNL     1      43.177 -17.394 -38.255  0.00  0.00    +0.136 A 
ATOM      4  C   UNL     1      41.943 -17.096 -37.639  0.00  0.00    +0.082 A 
ATOM      5  C   UNL     1      41.681 -15.799 -37.185  0.00  0.00    -0.001 A 
ATOM      6  C   UNL     1      42.655 -14.804 -37.345  0.00  0.00    +0.163 A 
ENDROOT
BRANCH   4   7
ATOM      7  C   UNL     1      40.980 -18.206 -37.391  0.00  0.00    +0.248 C 
ATOM      8  O   UNL     1      40.597 -18.433 -36.249  0.00  0.00    -0.270 OA
ATOM      9  N   UNL     1      40.491 -18.839 -38.515  0.00  0.00    -0.311 N 
ATOM     10  H   UNL     1      41.019 -18.842 -39.346  0.00  0.00    +0.000 HD
BRANCH   9  11
ATOM     11  C   UNL     1      39.198 -19.501 -38.475  0.00  0.00    +0.012 C 
BRANCH  11  12
ATOM     12  C   UNL     1      39.265 -21.001 -38.200  0.00  0.00    -0.037 C 
BRANCH  12  13
ATOM     13  C   UNL     1      40.709 -21.481 -38.366  0.00  0.00    -0.051 C 
BRANCH  13  14
ATOM     14  C   UNL     1      41.258 -22.176 -37.118  0.00  0.00    -0.045 C 
BRANCH  14  15
ATOM     15  C   UNL     1      40.150 -22.472 -36.101  0.00  0.00    +0.025 C 
BRANCH  15  16
ATOM     16  C   UNL     1      40.662 -22.342 -34.679  0.00  0.00    +0.229 C 
ATOM     17  O   UNL     1      39.985 -22.674 -33.708  0.00  0.00    -0.274 OA
ATOM     18  N   UNL     1      41.909 -21.748 -34.601  0.00  0.00    -0.236 N 
ATOM     19  H   UNL     1      42.505 -21.697 -35.384  0.00  0.00    +0.000 HD
BRANCH  18  20
ATOM     20  N   UNL     1      42.292 -21.215 -33.346  0.00  0.00    -0.264 N 
ATOM     21  H   UNL     1      42.383 -21.745 -32.522  0.00  0.00    +0.000 HD
BRANCH  20  22
ATOM     22  C   UNL     1      42.528 -19.812 -33.433  0.00  0.00    +0.058 A 
ATOM     23  C   UNL     1      43.684 -19.315 -34.067  0.00  0.00    -0.003 A 
ATOM     24  C   UNL     1      43.817 -17.929 -34.163  0.00  0.00    +0.047 A 
ATOM     25  N   UNL     1      42.867 -17.062 -33.733  0.00  0.00    -0.251 NA
ATOM     26  C   UNL     1      41.753 -17.534 -33.164  0.00  0.00    +0.074 A 
ATOM     27  C   UNL     1      40.789 -16.624 -32.753  0.00  0.00    -0.017 A 
ATOM     28  C   UNL     1      39.609 -17.045 -32.146  0.00  0.00    +0.043 A 
ATOM     29 CL   UNL     1      38.438 -15.889 -31.643  0.00  0.00    -0.083 Cl
ATOM     30  C   UNL     1      39.378 -18.395 -31.923  0.00  0.00    -0.043 A 
ATOM     31  C   UNL     1      40.338 -19.320 -32.324  0.00  0.00    -0.049 A 
ATOM     32  C   UNL     1      41.530 -18.909 -32.972  0.00  0.00    +0.023 A 
ATOM     33  C   UNL     1      45.010 -17.288 -34.828  0.00  0.00    -0.010 C 
ATOM     34  C   UNL     1      46.218 -18.214 -34.917  0.00  0.00    -0.047 C 
ATOM     35  C   UNL     1      45.792 -19.557 -35.489  0.00  0.00    -0.049 C 
ATOM     36  C   UNL     1      44.772 -20.233 -34.573  0.00  0.00    -0.024 C 
ENDBRANCH  20  22
ENDBRANCH  18  20
ENDBRANCH  15  16
ENDBRANCH  14  15
ENDBRANCH  13  14
ENDBRANCH  12  13
ENDBRANCH  11  12
ENDBRANCH   9  11
ENDBRANCH   4   7
BRANCH   1  37
ATOM     37  O   UNL     1      44.621 -13.978 -38.364  0.00  0.00    -0.490 OA
BRANCH  37  38
ATOM     38  C   UNL     1      45.111 -13.761 -39.693  0.00  0.00    +0.076 C 
BRANCH  38  39
ATOM     39  C   UNL     1      46.892 -13.708 -39.843  0.00  0.00    -0.053 C 
BRANCH  39  40
ATOM     40  N   UNL     1      47.514 -14.308 -39.340  0.00  0.00    +0.382 N 
BRANCH  40  42
ATOM     41  C   UNL     1      47.935 -15.381 -41.487  0.00  0.00    -0.080 C 
ATOM     42  C   UNL     1      47.273 -15.066 -39.945  0.00  0.00    -0.091 C 
ENDBRANCH  40  42
BRANCH  40  43
ATOM     43  C   UNL     1      48.136 -14.908 -38.836  0.00  0.00    -0.091 C 
ATOM     44  C   UNL     1      47.665 -15.708 -37.416  0.00  0.00    -0.080 C 
ENDBRANCH  40  43
BRANCH  40  45
ATOM     45  C   UNL     1      47.755 -13.550 -38.734  0.00  0.00    -0.091 C 
ATOM     46  C   UNL     1      49.170 -12.631 -39.231  0.00  0.00    -0.080 C 
ENDBRANCH  40  45
ENDBRANCH  39  40
ENDBRANCH  38  39
ENDBRANCH  37  38
ENDBRANCH   1  37
BRANCH   6  47
ATOM     47  O   UNL     1      42.447 -13.659 -36.626  0.00  0.00    -0.490 OA
BRANCH  47  48
ATOM     48  C   UNL     1      42.302 -13.798 -35.195  0.00  0.00    +0.076 C 
BRANCH  48  49
ATOM     49  C   UNL     1      43.651 -13.898 -34.398  0.00  0.00    -0.053 C 
BRANCH  49  50
ATOM     50  N   UNL     1      43.670 -12.920 -32.793  0.00  0.00    +0.382 N 
BRANCH  50  51
ATOM     51  C   UNL     1      44.392 -12.358 -33.195  0.00  0.00    -0.091 C 
ATOM     52  C   UNL     1      44.669 -10.821 -33.469  0.00  0.00    -0.080 C 
ENDBRANCH  50  51
BRANCH  50  53
ATOM     53  C   UNL     1      44.841 -13.601 -31.518  0.00  0.00    -0.091 C 
ATOM     54  C   UNL     1      44.715 -15.133 -31.452  0.00  0.00    -0.080 C 
ENDBRANCH  50  53
BRANCH  50  55
ATOM     55  C   UNL     1      42.947 -13.483 -32.391  0.00  0.00    -0.091 C 
ATOM     56  C   UNL     1      41.562 -13.257 -31.667  0.00  0.00    -0.080 C 
ENDBRANCH  50  55
ENDBRANCH  49  50
ENDBRANCH  48  49
ENDBRANCH  47  48
ENDBRANCH   6  47
BRANCH   3  57
ATOM     57  O   UNL     1      43.408 -18.721 -38.498  0.00  0.00    -0.493 OA
BRANCH  57  58
ATOM     58  C   UNL     1      43.662 -19.262 -39.782  0.00  0.00    +0.075 C 
BRANCH  58  59
ATOM     59  C   UNL     1      44.250 -20.707 -39.715  0.00  0.00    -0.053 C 
BRANCH  59  60
ATOM     60  N   UNL     1      46.062 -20.813 -40.181  0.00  0.00    +0.382 N 
BRANCH  60  61
ATOM     61  C   UNL     1      45.811 -20.677 -41.139  0.00  0.00    -0.091 C 
ATOM     62  C   UNL     1      46.722 -19.712 -41.967  0.00  0.00    -0.080 C 
ENDBRANCH  60  61
BRANCH  60  63
ATOM     63  C   UNL     1      46.224 -22.648 -40.549  0.00  0.00    -0.091 C 
ATOM     64  C   UNL     1      47.647 -23.100 -40.882  0.00  0.00    -0.080 C 
ENDBRANCH  60  63
BRANCH  60  65
ATOM     65  C   UNL     1      46.314 -20.949 -39.223  0.00  0.00    -0.091 C 
ATOM     66  C   UNL     1      47.254 -19.816 -38.664  0.00  0.00    -0.080 C 
ENDBRANCH  60  65
ENDBRANCH  59  60
ENDBRANCH  58  59
ENDBRANCH  57  58
ENDBRANCH   3  57
TORSDOF 30
ENDMDL
MODEL 5
REMARK VINA RESULT:    -6.655      2.423      6.838
REMARK INTER + INTRA:          -6.957
REMARK INTER:                 -16.218
REMARK INTRA:                   9.261
REMARK UNBOUND:                 8.064
REMARK  Name = cpd109.pdb
REMARK  39 active torsions:
REMARK  status: ('A' for Active; 'I' for Inactive)
REMARK    1  A    between atoms: C_1  and  C_2
REMARK    2  A    between atoms: C_2  and  N_3
REMARK    3  A    between atoms: N_3  and  C_4
REMARK    4  A    between atoms: N_3  and  C_6
REMARK    5  A    between atoms: N_3  and  C_8
REMARK    6  A    between atoms: C_4  and  C_5
REMARK    7  A    between atoms: C_6  and  C_7
REMARK    8  A    between atoms: C_8  and  C_9
REMARK    9  A    between atoms: C_9  and  O_10
REMARK   10  A    between atoms: O_10  and  C_11
REMARK   11  A    between atoms: C_13  and  O_14
REMARK   12  A    between atoms: O_14  and  C_15
REMARK   13  A    between atoms: C_15  and  C_16
REMARK   14  A    between atoms: C_16  and  N_17
REMARK   15  A    between atoms: N_17  and  C_18
REMARK   16  A    between atoms: N_17  and  C_20
REMARK   17  A    between atoms: N_17  and  C_22
REMARK   18  A    between atoms: C_18  and  C_19
REMARK   19  A    between atoms: C_20  and  C_21
REMARK   20  A    between atoms: C_22  and  C_23
REMARK   21  A    between atoms: C_24  and  C_25
REMARK   22  A    between atoms: N_27  and  C_28
REMARK   23  A    between atoms: C_28  and  C_29
REMARK   24  A    between atoms: C_29  and  C_30
REMARK   25  A    between atoms: C_30  and  C_31
REMARK   26  A    between atoms: C_31  and  C_32
REMARK   27  A    between atoms: C_32  and  C_33
REMARK   28  A    between atoms: N_35  and  N_36
REMARK   29  A    between atoms: N_36  and  C_37
REMARK   30  A    between atoms: C_53  and  O_54
REMARK   31  A    between atoms: O_54  and  C_55
REMARK   32  A    between atoms: C_55  and  C_56
REMARK   33  A    between atoms: C_56  and  N_57
REMARK   34  A    between atoms: N_57  and  C_58
REMARK   35  A    between atoms: N_57  and  C_60
REMARK   36  A    between atoms: N_57  and  C_62
REMARK   37  A    between atoms: C_58  and  C_59
REMARK   38  A    between atoms: C_60  and  C_61
REMARK   39  A    between atoms: C_62  and  C_63
REMARK                            x       y       z     vdW  Elec       q    Type
REMARK                         _______ _______ _______ _____ _____    ______ ____
ROOT
ATOM      1  C   UNL     1      43.472 -16.772 -38.303  0.00  0.00    +0.165 A 
ATOM      2  C   UNL     1      44.403 -17.816 -38.366  0.00  0.00    +0.026 A 
ATOM      3  C   UNL     1      43.998 -19.150 -38.186  0.00  0.00    +0.136 A 
ATOM      4  C   UNL     1      42.630 -19.433 -37.983  0.00  0.00    +0.082 A 
ATOM      5  C   UNL     1      41.711 -18.388 -37.843  0.00  0.00    -0.001 A 
ATOM      6  C   UNL     1      42.161 -17.062 -37.904  0.00  0.00    +0.163 A 
ENDROOT
BRANCH   4   7
ATOM      7  C   UNL     1      42.210 -20.853 -37.817  0.00  0.00    +0.248 C 
ATOM      8  O   UNL     1      42.416 -21.426 -36.753  0.00  0.00    -0.270 OA
ATOM      9  N   UNL     1      41.496 -21.395 -38.865  0.00  0.00    -0.311 N 
ATOM     10  H   UNL     1      41.607 -21.034 -39.774  0.00  0.00    +0.000 HD
BRANCH   9  11
ATOM     11  C   UNL     1      40.579 -22.498 -38.631  0.00  0.00    +0.012 C 
BRANCH  11  12
ATOM     12  C   UNL     1      39.310 -22.114 -37.876  0.00  0.00    -0.037 C 
BRANCH  12  13
ATOM     13  C   UNL     1      39.174 -22.999 -36.634  0.00  0.00    -0.051 C 
BRANCH  13  14
ATOM     14  C   UNL     1      39.323 -22.221 -35.324  0.00  0.00    -0.045 C 
BRANCH  14  15
ATOM     15  C   UNL     1      39.438 -23.160 -34.118  0.00  0.00    +0.025 C 
BRANCH  15  16
ATOM     16  C   UNL     1      40.568 -22.736 -33.199  0.00  0.00    +0.229 C 
ATOM     17  O   UNL     1      40.569 -23.001 -31.999  0.00  0.00    -0.274 OA
ATOM     18  N   UNL     1      41.528 -21.969 -33.835  0.00  0.00    -0.236 N 
ATOM     19  H   UNL     1      41.613 -21.961 -34.816  0.00  0.00    +0.000 HD
BRANCH  18  20
ATOM     20  N   UNL     1      42.384 -21.197 -33.013  0.00  0.00    -0.264 N 
ATOM     21  H   UNL     1      42.780 -21.514 -32.169  0.00  0.00    +0.000 HD
BRANCH  20  22
ATOM     22  C   UNL     1      42.597 -19.900 -33.566  0.00  0.00    +0.058 A 
ATOM     23  C   UNL     1      41.612 -18.899 -33.451  0.00  0.00    -0.003 A 
ATOM     24  C   UNL     1      41.917 -17.638 -33.967  0.00  0.00    +0.047 A 
ATOM     25  N   UNL     1      43.121 -17.330 -34.509  0.00  0.00    -0.251 NA
ATOM     26  C   UNL     1      44.068 -18.271 -34.585  0.00  0.00    +0.074 A 
ATOM     27  C   UNL     1      45.298 -17.921 -35.125  0.00  0.00    -0.017 A 
ATOM     28  C   UNL     1      46.327 -18.852 -35.243  0.00  0.00    +0.043 A 
ATOM     29 CL   UNL     1      47.838 -18.385 -35.923  0.00  0.00    -0.083 Cl
ATOM     30  C   UNL     1      46.137 -20.163 -34.834  0.00  0.00    -0.043 A 
ATOM     31  C   UNL     1      44.907 -20.532 -34.296  0.00  0.00    -0.049 A 
ATOM     32  C   UNL     1      43.861 -19.588 -34.140  0.00  0.00    +0.023 A 
ATOM     33  C   UNL     1      40.940 -16.490 -33.892  0.00  0.00    -0.010 C 
ATOM     34  C   UNL     1      39.499 -16.940 -33.681  0.00  0.00    -0.047 C 
ATOM     35  C   UNL     1      39.435 -17.932 -32.529  0.00  0.00    -0.049 C 
ATOM     36  C   UNL     1      40.255 -19.181 -32.850  0.00  0.00    -0.024 C 
ENDBRANCH  20  22
ENDBRANCH  18  20
ENDBRANCH  15  16
ENDBRANCH  14  15
ENDBRANCH  13  14
ENDBRANCH  12  13
ENDBRANCH  11  12
ENDBRANCH   9  11
ENDBRANCH   4   7
BRANCH   1  37
ATOM     37  O   UNL     1      43.795 -15.457 -38.484  0.00  0.00    -0.490 OA
BRANCH  37  38
ATOM     38  C   UNL     1      43.844 -14.932 -39.817  0.00  0.00    +0.076 C 
BRANCH  38  39
ATOM     39  C   UNL     1      45.304 -13.971 -40.198  0.00  0.00    -0.053 C 
BRANCH  39  40
ATOM     40  N   UNL     1      46.190 -14.370 -40.434  0.00  0.00    +0.382 N 
BRANCH  40  42
ATOM     41  C   UNL     1      47.363 -12.857 -38.925  0.00  0.00    -0.080 C 
ATOM     42  C   UNL     1      46.507 -14.218 -39.497  0.00  0.00    -0.091 C 
ENDBRANCH  40  42
BRANCH  40  43
ATOM     43  C   UNL     1      47.077 -14.768 -40.669  0.00  0.00    -0.091 C 
ATOM     44  C   UNL     1      47.415 -16.415 -40.442  0.00  0.00    -0.080 C 
ENDBRANCH  40  43
BRANCH  40  45
ATOM     45  C   UNL     1      45.873 -14.521 -41.370  0.00  0.00    -0.091 C 
ATOM     46  C   UNL     1      46.028 -13.129 -42.433  0.00  0.00    -0.080 C 
ENDBRANCH  40  45
ENDBRANCH  39  40
ENDBRANCH  38  39
ENDBRANCH  37  38
ENDBRANCH   1  37
BRANCH   6  47
ATOM     47  O   UNL     1      41.269 -16.120 -37.472  0.00  0.00    -0.490 OA
BRANCH  47  48
ATOM     48  C   UNL     1      40.062 -15.951 -38.248  0.00  0.00    +0.076 C 
BRANCH  48  49
ATOM     49  C   UNL     1      38.735 -15.904 -37.411  0.00  0.00    -0.053 C 
BRANCH  49  50
ATOM     50  N   UNL     1      37.430 -17.137 -37.968  0.00  0.00    +0.382 N 
BRANCH  50  51
ATOM     51  C   UNL     1      38.046 -17.862 -37.661  0.00  0.00    -0.091 C 
ATOM     52  C   UNL     1      38.071 -18.989 -36.546  0.00  0.00    -0.080 C 
ENDBRANCH  50  51
BRANCH  50  53
ATOM     53  C   UNL     1      37.613 -17.665 -39.742  0.00  0.00    -0.091 C 
ATOM     54  C   UNL     1      37.622 -16.431 -40.661  0.00  0.00    -0.080 C 
ENDBRANCH  50  53
BRANCH  50  55
ATOM     55  C   UNL     1      36.814 -16.412 -38.275  0.00  0.00    -0.091 C 
ATOM     56  C   UNL     1      35.436 -15.786 -37.824  0.00  0.00    -0.080 C 
ENDBRANCH  50  55
ENDBRANCH  49  50
ENDBRANCH  48  49
ENDBRANCH  47  48
ENDBRANCH   6  47
BRANCH   3  57
ATOM     57  O   UNL     1      44.836 -20.230 -38.129  0.00  0.00    -0.493 OA
BRANCH  57  58
ATOM     58  C   UNL     1      45.265 -20.964 -39.261  0.00  0.00    +0.075 C 
BRANCH  58  59
ATOM     59  C   UNL     1      46.574 -20.385 -39.887  0.00  0.00    -0.053 C 
BRANCH  59  60
ATOM     60  N   UNL     1      46.779 -20.769 -41.710  0.00  0.00    +0.382 N 
BRANCH  60  61
ATOM     61  C   UNL     1      47.162 -19.855 -41.846  0.00  0.00    -0.091 C 
ATOM     62  C   UNL     1      48.593 -19.788 -42.474  0.00  0.00    -0.080 C 
ENDBRANCH  60  61
BRANCH  60  63
ATOM     63  C   UNL     1      45.152 -20.119 -42.390  0.00  0.00    -0.091 C 
ATOM     64  C   UNL     1      44.814 -18.692 -41.957  0.00  0.00    -0.080 C 
ENDBRANCH  60  63
BRANCH  60  65
ATOM     65  C   UNL     1      46.396 -21.682 -41.574  0.00  0.00    -0.091 C 
ATOM     66  C   UNL     1      47.303 -22.826 -42.163  0.00  0.00    -0.080 C 
ENDBRANCH  60  65
ENDBRANCH  59  60
ENDBRANCH  58  59
ENDBRANCH  57  58
ENDBRANCH   3  57
TORSDOF 30
ENDMDL
MODEL 6
REMARK VINA RESULT:    -6.631      2.271      6.087
REMARK INTER + INTRA:          -6.902
REMARK INTER:                 -14.768
REMARK INTRA:                   7.866
REMARK UNBOUND:                 8.064
REMARK  Name = cpd109.pdb
REMARK  39 active torsions:
REMARK  status: ('A' for Active; 'I' for Inactive)
REMARK    1  A    between atoms: C_1  and  C_2
REMARK    2  A    between atoms: C_2  and  N_3
REMARK    3  A    between atoms: N_3  and  C_4
REMARK    4  A    between atoms: N_3  and  C_6
REMARK    5  A    between atoms: N_3  and  C_8
REMARK    6  A    between atoms: C_4  and  C_5
REMARK    7  A    between atoms: C_6  and  C_7
REMARK    8  A    between atoms: C_8  and  C_9
REMARK    9  A    between atoms: C_9  and  O_10
REMARK   10  A    between atoms: O_10  and  C_11
REMARK   11  A    between atoms: C_13  and  O_14
REMARK   12  A    between atoms: O_14  and  C_15
REMARK   13  A    between atoms: C_15  and  C_16
REMARK   14  A    between atoms: C_16  and  N_17
REMARK   15  A    between atoms: N_17  and  C_18
REMARK   16  A    between atoms: N_17  and  C_20
REMARK   17  A    between atoms: N_17  and  C_22
REMARK   18  A    between atoms: C_18  and  C_19
REMARK   19  A    between atoms: C_20  and  C_21
REMARK   20  A    between atoms: C_22  and  C_23
REMARK   21  A    between atoms: C_24  and  C_25
REMARK   22  A    between atoms: N_27  and  C_28
REMARK   23  A    between atoms: C_28  and  C_29
REMARK   24  A    between atoms: C_29  and  C_30
REMARK   25  A    between atoms: C_30  and  C_31
REMARK   26  A    between atoms: C_31  and  C_32
REMARK   27  A    between atoms: C_32  and  C_33
REMARK   28  A    between atoms: N_35  and  N_36
REMARK   29  A    between atoms: N_36  and  C_37
REMARK   30  A    between atoms: C_53  and  O_54
REMARK   31  A    between atoms: O_54  and  C_55
REMARK   32  A    between atoms: C_55  and  C_56
REMARK   33  A    between atoms: C_56  and  N_57
REMARK   34  A    between atoms: N_57  and  C_58
REMARK   35  A    between atoms: N_57  and  C_60
REMARK   36  A    between atoms: N_57  and  C_62
REMARK   37  A    between atoms: C_58  and  C_59
REMARK   38  A    between atoms: C_60  and  C_61
REMARK   39  A    between atoms: C_62  and  C_63
REMARK                            x       y       z     vdW  Elec       q    Type
REMARK                         _______ _______ _______ _____ _____    ______ ____
ROOT
ATOM      1  C   UNL     1      44.381 -16.386 -36.580  0.00  0.00    +0.165 A 
ATOM      2  C   UNL     1      45.313 -17.415 -36.759  0.00  0.00    +0.026 A 
ATOM      3  C   UNL     1      44.889 -18.744 -36.935  0.00  0.00    +0.136 A 
ATOM      4  C   UNL     1      43.507 -19.028 -36.973  0.00  0.00    +0.082 A 
ATOM      5  C   UNL     1      42.577 -18.015 -36.718  0.00  0.00    -0.001 A 
ATOM      6  C   UNL     1      43.030 -16.722 -36.423  0.00  0.00    +0.163 A 
ENDROOT
BRANCH   4   7
ATOM      7  C   UNL     1      43.071 -20.437 -37.182  0.00  0.00    +0.248 C 
ATOM      8  O   UNL     1      42.873 -21.161 -36.214  0.00  0.00    -0.270 OA
ATOM      9  N   UNL     1      42.803 -20.795 -38.488  0.00  0.00    -0.311 N 
ATOM     10  H   UNL     1      43.241 -20.315 -39.228  0.00  0.00    +0.000 HD
BRANCH   9  11
ATOM     11  C   UNL     1      41.877 -21.877 -38.772  0.00  0.00    +0.012 C 
BRANCH  11  12
ATOM     12  C   UNL     1      40.580 -21.439 -39.444  0.00  0.00    -0.037 C 
BRANCH  12  13
ATOM     13  C   UNL     1      39.390 -21.896 -38.594  0.00  0.00    -0.051 C 
BRANCH  13  14
ATOM     14  C   UNL     1      39.645 -21.771 -37.089  0.00  0.00    -0.045 C 
BRANCH  14  15
ATOM     15  C   UNL     1      39.487 -23.117 -36.374  0.00  0.00    +0.025 C 
BRANCH  15  16
ATOM     16  C   UNL     1      39.881 -23.011 -34.913  0.00  0.00    +0.229 C 
ATOM     17  O   UNL     1      39.439 -23.778 -34.060  0.00  0.00    -0.274 OA
ATOM     18  N   UNL     1      40.707 -21.933 -34.649  0.00  0.00    -0.236 N 
ATOM     19  H   UNL     1      41.209 -21.481 -35.365  0.00  0.00    +0.000 HD
BRANCH  18  20
ATOM     20  N   UNL     1      40.798 -21.507 -33.301  0.00  0.00    -0.264 N 
ATOM     21  H   UNL     1      41.058 -22.089 -32.550  0.00  0.00    +0.000 HD
BRANCH  20  22
ATOM     22  C   UNL     1      40.467 -20.126 -33.174  0.00  0.00    +0.058 A 
ATOM     23  C   UNL     1      39.126 -19.720 -33.024  0.00  0.00    -0.003 A 
ATOM     24  C   UNL     1      38.886 -18.356 -32.847  0.00  0.00    +0.047 A 
ATOM     25  N   UNL     1      39.876 -17.435 -32.754  0.00  0.00    -0.251 NA
ATOM     26  C   UNL     1      41.150 -17.826 -32.860  0.00  0.00    +0.074 A 
ATOM     27  C   UNL     1      42.144 -16.864 -32.740  0.00  0.00    -0.017 A 
ATOM     28  C   UNL     1      43.491 -17.198 -32.848  0.00  0.00    +0.043 A 
ATOM     29 CL   UNL     1      44.697 -15.978 -32.700  0.00  0.00    -0.083 Cl
ATOM     30  C   UNL     1      43.871 -18.509 -33.095  0.00  0.00    -0.043 A 
ATOM     31  C   UNL     1      42.887 -19.485 -33.224  0.00  0.00    -0.049 A 
ATOM     32  C   UNL     1      41.512 -19.165 -33.086  0.00  0.00    +0.023 A 
ATOM     33  C   UNL     1      37.490 -17.811 -32.670  0.00  0.00    -0.010 C 
ATOM     34  C   UNL     1      36.407 -18.752 -33.183  0.00  0.00    -0.047 C 
ATOM     35  C   UNL     1      36.640 -20.150 -32.630  0.00  0.00    -0.049 C 
ATOM     36  C   UNL     1      37.981 -20.702 -33.110  0.00  0.00    -0.024 C 
ENDBRANCH  20  22
ENDBRANCH  18  20
ENDBRANCH  15  16
ENDBRANCH  14  15
ENDBRANCH  13  14
ENDBRANCH  12  13
ENDBRANCH  11  12
ENDBRANCH   9  11
ENDBRANCH   4   7
BRANCH   1  37
ATOM     37  O   UNL     1      44.723 -15.073 -36.420  0.00  0.00    -0.490 OA
BRANCH  37  38
ATOM     38  C   UNL     1      44.584 -14.180 -37.532  0.00  0.00    +0.076 C 
BRANCH  38  39
ATOM     39  C   UNL     1      46.118 -13.703 -38.317  0.00  0.00    -0.053 C 
BRANCH  39  40
ATOM     40  N   UNL     1      46.224 -13.567 -39.302  0.00  0.00    +0.382 N 
BRANCH  40  42
ATOM     41  C   UNL     1      47.880 -15.349 -39.160  0.00  0.00    -0.080 C 
ATOM     42  C   UNL     1      46.397 -14.545 -39.419  0.00  0.00    -0.091 C 
ENDBRANCH  40  42
BRANCH  40  43
ATOM     43  C   UNL     1      46.331 -13.430 -40.287  0.00  0.00    -0.091 C 
ATOM     44  C   UNL     1      45.065 -13.718 -41.379  0.00  0.00    -0.080 C 
ENDBRANCH  40  43
BRANCH  40  45
ATOM     45  C   UNL     1      46.051 -12.589 -39.185  0.00  0.00    -0.091 C 
ATOM     46  C   UNL     1      47.489 -11.616 -38.904  0.00  0.00    -0.080 C 
ENDBRANCH  40  45
ENDBRANCH  39  40
ENDBRANCH  38  39
ENDBRANCH  37  38
ENDBRANCH   1  37
BRANCH   6  47
ATOM     47  O   UNL     1      42.089 -15.874 -35.906  0.00  0.00    -0.490 OA
BRANCH  47  48
ATOM     48  C   UNL     1      40.729 -16.041 -36.365  0.00  0.00    +0.076 C 
BRANCH  48  49
ATOM     49  C   UNL     1      40.311 -15.109 -37.557  0.00  0.00    -0.053 C 
BRANCH  49  50
ATOM     50  N   UNL     1      40.123 -16.001 -39.201  0.00  0.00    +0.382 N 
BRANCH  50  51
ATOM     51  C   UNL     1      39.145 -15.802 -39.147  0.00  0.00    -0.091 C 
ATOM     52  C   UNL     1      38.070 -14.963 -39.957  0.00  0.00    -0.080 C 
ENDBRANCH  50  51
BRANCH  50  53
ATOM     53  C   UNL     1      39.812 -17.827 -39.027  0.00  0.00    -0.091 C 
ATOM     54  C   UNL     1      38.434 -18.068 -38.387  0.00  0.00    -0.080 C 
ENDBRANCH  50  53
BRANCH  50  55
ATOM     55  C   UNL     1      41.102 -16.200 -39.255  0.00  0.00    -0.091 C 
ATOM     56  C   UNL     1      42.296 -15.912 -40.247  0.00  0.00    -0.080 C 
ENDBRANCH  50  55
ENDBRANCH  49  50
ENDBRANCH  48  49
ENDBRANCH  47  48
ENDBRANCH   6  47
BRANCH   3  57
ATOM     57  O   UNL     1      45.715 -19.832 -37.017  0.00  0.00    -0.493 OA
BRANCH  57  58
ATOM     58  C   UNL     1      46.664 -20.034 -38.048  0.00  0.00    +0.075 C 
BRANCH  58  59
ATOM     59  C   UNL     1      46.136 -20.989 -39.166  0.00  0.00    -0.053 C 
BRANCH  59  60
ATOM     60  N   UNL     1      46.108 -20.216 -40.874  0.00  0.00    +0.382 N 
BRANCH  60  61
ATOM     61  C   UNL     1      45.216 -19.817 -40.665  0.00  0.00    -0.091 C 
ATOM     62  C   UNL     1      45.101 -18.263 -40.797  0.00  0.00    -0.080 C 
ENDBRANCH  60  61
BRANCH  60  63
ATOM     63  C   UNL     1      45.213 -21.551 -41.848  0.00  0.00    -0.091 C 
ATOM     64  C   UNL     1      43.719 -21.290 -42.047  0.00  0.00    -0.080 C 
ENDBRANCH  60  63
BRANCH  60  65
ATOM     65  C   UNL     1      47.001 -20.615 -41.083  0.00  0.00    -0.091 C 
ATOM     66  C   UNL     1      47.909 -19.673 -41.958  0.00  0.00    -0.080 C 
ENDBRANCH  60  65
ENDBRANCH  59  60
ENDBRANCH  58  59
ENDBRANCH  57  58
ENDBRANCH   3  57
TORSDOF 30
ENDMDL
MODEL 7
REMARK VINA RESULT:    -6.618      2.601      7.083
REMARK INTER + INTRA:          -6.871
REMARK INTER:                 -14.492
REMARK INTRA:                   7.621
REMARK UNBOUND:                 8.064
REMARK  Name = cpd109.pdb
REMARK  39 active torsions:
REMARK  status: ('A' for Active; 'I' for Inactive)
REMARK    1  A    between atoms: C_1  and  C_2
REMARK    2  A    between atoms: C_2  and  N_3
REMARK    3  A    between atoms: N_3  and  C_4
REMARK    4  A    between atoms: N_3  and  C_6
REMARK    5  A    between atoms: N_3  and  C_8
REMARK    6  A    between atoms: C_4  and  C_5
REMARK    7  A    between atoms: C_6  and  C_7
REMARK    8  A    between atoms: C_8  and  C_9
REMARK    9  A    between atoms: C_9  and  O_10
REMARK   10  A    between atoms: O_10  and  C_11
REMARK   11  A    between atoms: C_13  and  O_14
REMARK   12  A    between atoms: O_14  and  C_15
REMARK   13  A    between atoms: C_15  and  C_16
REMARK   14  A    between atoms: C_16  and  N_17
REMARK   15  A    between atoms: N_17  and  C_18
REMARK   16  A    between atoms: N_17  and  C_20
REMARK   17  A    between atoms: N_17  and  C_22
REMARK   18  A    between atoms: C_18  and  C_19
REMARK   19  A    between atoms: C_20  and  C_21
REMARK   20  A    between atoms: C_22  and  C_23
REMARK   21  A    between atoms: C_24  and  C_25
REMARK   22  A    between atoms: N_27  and  C_28
REMARK   23  A    between atoms: C_28  and  C_29
REMARK   24  A    between atoms: C_29  and  C_30
REMARK   25  A    between atoms: C_30  and  C_31
REMARK   26  A    between atoms: C_31  and  C_32
REMARK   27  A    between atoms: C_32  and  C_33
REMARK   28  A    between atoms: N_35  and  N_36
REMARK   29  A    between atoms: N_36  and  C_37
REMARK   30  A    between atoms: C_53  and  O_54
REMARK   31  A    between atoms: O_54  and  C_55
REMARK   32  A    between atoms: C_55  and  C_56
REMARK   33  A    between atoms: C_56  and  N_57
REMARK   34  A    between atoms: N_57  and  C_58
REMARK   35  A    between atoms: N_57  and  C_60
REMARK   36  A    between atoms: N_57  and  C_62
REMARK   37  A    between atoms: C_58  and  C_59
REMARK   38  A    between atoms: C_60  and  C_61
REMARK   39  A    between atoms: C_62  and  C_63
REMARK                            x       y       z     vdW  Elec       q    Type
REMARK                         _______ _______ _______ _____ _____    ______ ____
ROOT
ATOM      1  C   UNL     1      44.005 -16.021 -37.050  0.00  0.00    +0.165 A 
ATOM      2  C   UNL     1      45.094 -16.879 -37.234  0.00  0.00    +0.026 A 
ATOM      3  C   UNL     1      44.899 -18.264 -37.380  0.00  0.00    +0.136 A 
ATOM      4  C   UNL     1      43.585 -18.779 -37.383  0.00  0.00    +0.082 A 
ATOM      5  C   UNL     1      42.502 -17.934 -37.123  0.00  0.00    -0.001 A 
ATOM      6  C   UNL     1      42.733 -16.577 -36.858  0.00  0.00    +0.163 A 
ENDROOT
BRANCH   4   7
ATOM      7  C   UNL     1      43.391 -20.245 -37.562  0.00  0.00    +0.248 C 
ATOM      8  O   UNL     1      43.089 -20.939 -36.598  0.00  0.00    -0.270 OA
ATOM      9  N   UNL     1      43.454 -20.706 -38.861  0.00  0.00    -0.311 N 
ATOM     10  H   UNL     1      43.972 -20.207 -39.534  0.00  0.00    +0.000 HD
BRANCH   9  11
ATOM     11  C   UNL     1      42.758 -21.924 -39.238  0.00  0.00    +0.012 C 
BRANCH  11  12
ATOM     12  C   UNL     1      41.325 -21.711 -39.715  0.00  0.00    -0.037 C 
BRANCH  12  13
ATOM     13  C   UNL     1      40.385 -22.612 -38.909  0.00  0.00    -0.051 C 
BRANCH  13  14
ATOM     14  C   UNL     1      39.947 -21.987 -37.582  0.00  0.00    -0.045 C 
BRANCH  14  15
ATOM     15  C   UNL     1      39.276 -23.016 -36.665  0.00  0.00    +0.025 C 
BRANCH  15  16
ATOM     16  C   UNL     1      39.808 -22.918 -35.248  0.00  0.00    +0.229 C 
ATOM     17  O   UNL     1      39.577 -23.779 -34.402  0.00  0.00    -0.274 OA
ATOM     18  N   UNL     1      40.494 -21.741 -35.005  0.00  0.00    -0.236 N 
ATOM     19  H   UNL     1      40.845 -21.188 -35.741  0.00  0.00    +0.000 HD
BRANCH  18  20
ATOM     20  N   UNL     1      40.671 -21.367 -33.651  0.00  0.00    -0.264 N 
ATOM     21  H   UNL     1      41.113 -21.927 -32.972  0.00  0.00    +0.000 HD
BRANCH  20  22
ATOM     22  C   UNL     1      40.125 -20.074 -33.399  0.00  0.00    +0.058 A 
ATOM     23  C   UNL     1      38.753 -19.914 -33.122  0.00  0.00    -0.003 A 
ATOM     24  C   UNL     1      38.304 -18.625 -32.829  0.00  0.00    +0.047 A 
ATOM     25  N   UNL     1      39.132 -17.554 -32.742  0.00  0.00    -0.251 NA
ATOM     26  C   UNL     1      40.440 -17.713 -32.969  0.00  0.00    +0.074 A 
ATOM     27  C   UNL     1      41.265 -16.603 -32.853  0.00  0.00    -0.017 A 
ATOM     28  C   UNL     1      42.636 -16.693 -33.084  0.00  0.00    +0.043 A 
ATOM     29 CL   UNL     1      43.629 -15.295 -32.936  0.00  0.00    -0.083 Cl
ATOM     30  C   UNL     1      43.206 -17.902 -33.453  0.00  0.00    -0.043 A 
ATOM     31  C   UNL     1      42.391 -19.023 -33.581  0.00  0.00    -0.049 A 
ATOM     32  C   UNL     1      41.000 -18.954 -33.318  0.00  0.00    +0.023 A 
ATOM     33  C   UNL     1      36.858 -18.339 -32.510  0.00  0.00    -0.010 C 
ATOM     34  C   UNL     1      35.907 -19.421 -33.009  0.00  0.00    -0.047 C 
ATOM     35  C   UNL     1      36.416 -20.788 -32.578  0.00  0.00    -0.049 C 
ATOM     36  C   UNL     1      37.785 -21.071 -33.195  0.00  0.00    -0.024 C 
ENDBRANCH  20  22
ENDBRANCH  18  20
ENDBRANCH  15  16
ENDBRANCH  14  15
ENDBRANCH  13  14
ENDBRANCH  12  13
ENDBRANCH  11  12
ENDBRANCH   9  11
ENDBRANCH   4   7
BRANCH   1  37
ATOM     37  O   UNL     1      44.122 -14.666 -36.918  0.00  0.00    -0.490 OA
BRANCH  37  38
ATOM     38  C   UNL     1      44.732 -13.916 -37.975  0.00  0.00    +0.076 C 
BRANCH  38  39
ATOM     39  C   UNL     1      43.638 -13.479 -39.321  0.00  0.00    -0.053 C 
BRANCH  39  40
ATOM     40  N   UNL     1      43.344 -14.117 -40.033  0.00  0.00    +0.382 N 
BRANCH  40  42
ATOM     41  C   UNL     1      44.922 -13.104 -41.590  0.00  0.00    -0.080 C 
ATOM     42  C   UNL     1      44.275 -14.140 -40.397  0.00  0.00    -0.091 C 
ENDBRANCH  40  42
BRANCH  40  43
ATOM     43  C   UNL     1      43.051 -14.755 -40.745  0.00  0.00    -0.091 C 
ATOM     44  C   UNL     1      43.192 -16.436 -40.564  0.00  0.00    -0.080 C 
ENDBRANCH  40  43
BRANCH  40  45
ATOM     45  C   UNL     1      42.413 -14.094 -39.669  0.00  0.00    -0.091 C 
ATOM     46  C   UNL     1      41.357 -12.909 -40.424  0.00  0.00    -0.080 C 
ENDBRANCH  40  45
ENDBRANCH  39  40
ENDBRANCH  38  39
ENDBRANCH  37  38
ENDBRANCH   1  37
BRANCH   6  47
ATOM     47  O   UNL     1      41.672 -15.892 -36.333  0.00  0.00    -0.490 OA
BRANCH  47  48
ATOM     48  C   UNL     1      40.418 -15.973 -37.046  0.00  0.00    +0.076 C 
BRANCH  48  49
ATOM     49  C   UNL     1      39.245 -15.137 -36.423  0.00  0.00    -0.053 C 
BRANCH  49  50
ATOM     50  N   UNL     1      37.572 -15.991 -36.489  0.00  0.00    +0.382 N 
BRANCH  50  51
ATOM     51  C   UNL     1      37.547 -15.925 -35.492  0.00  0.00    -0.091 C 
ATOM     52  C   UNL     1      36.657 -15.224 -34.383  0.00  0.00    -0.080 C 
ENDBRANCH  50  51
BRANCH  50  53
ATOM     53  C   UNL     1      37.679 -17.847 -36.413  0.00  0.00    -0.091 C 
ATOM     54  C   UNL     1      36.267 -18.458 -36.451  0.00  0.00    -0.080 C 
ENDBRANCH  50  53
BRANCH  50  55
ATOM     55  C   UNL     1      37.597 -16.058 -37.487  0.00  0.00    -0.091 C 
ATOM     56  C   UNL     1      36.776 -15.494 -38.712  0.00  0.00    -0.080 C 
ENDBRANCH  50  55
ENDBRANCH  49  50
ENDBRANCH  48  49
ENDBRANCH  47  48
ENDBRANCH   6  47
BRANCH   3  57
ATOM     57  O   UNL     1      45.896 -19.198 -37.465  0.00  0.00    -0.493 OA
BRANCH  57  58
ATOM     58  C   UNL     1      46.926 -19.176 -38.437  0.00  0.00    +0.075 C 
BRANCH  58  59
ATOM     59  C   UNL     1      46.368 -19.188 -39.896  0.00  0.00    -0.053 C 
BRANCH  59  60
ATOM     60  N   UNL     1      47.052 -20.572 -40.959  0.00  0.00    +0.382 N 
BRANCH  60  61
ATOM     61  C   UNL     1      47.220 -19.910 -41.690  0.00  0.00    -0.091 C 
ATOM     62  C   UNL     1      48.609 -20.001 -42.403  0.00  0.00    -0.080 C 
ENDBRANCH  60  61
BRANCH  60  63
ATOM     63  C   UNL     1      45.503 -21.102 -41.882  0.00  0.00    -0.091 C 
ATOM     64  C   UNL     1      45.665 -22.386 -42.698  0.00  0.00    -0.080 C 
ENDBRANCH  60  63
BRANCH  60  65
ATOM     65  C   UNL     1      46.883 -21.233 -40.229  0.00  0.00    -0.091 C 
ATOM     66  C   UNL     1      48.097 -22.205 -39.984  0.00  0.00    -0.080 C 
ENDBRANCH  60  65
ENDBRANCH  59  60
ENDBRANCH  58  59
ENDBRANCH  57  58
ENDBRANCH   3  57
TORSDOF 30
ENDMDL
MODEL 8
REMARK VINA RESULT:    -6.490      3.002      7.453
REMARK INTER + INTRA:          -6.584
REMARK INTER:                 -14.634
REMARK INTRA:                   8.049
REMARK UNBOUND:                 8.064
REMARK  Name = cpd109.pdb
REMARK  39 active torsions:
REMARK  status: ('A' for Active; 'I' for Inactive)
REMARK    1  A    between atoms: C_1  and  C_2
REMARK    2  A    between atoms: C_2  and  N_3
REMARK    3  A    between atoms: N_3  and  C_4
REMARK    4  A    between atoms: N_3  and  C_6
REMARK    5  A    between atoms: N_3  and  C_8
REMARK    6  A    between atoms: C_4  and  C_5
REMARK    7  A    between atoms: C_6  and  C_7
REMARK    8  A    between atoms: C_8  and  C_9
REMARK    9  A    between atoms: C_9  and  O_10
REMARK   10  A    between atoms: O_10  and  C_11
REMARK   11  A    between atoms: C_13  and  O_14
REMARK   12  A    between atoms: O_14  and  C_15
REMARK   13  A    between atoms: C_15  and  C_16
REMARK   14  A    between atoms: C_16  and  N_17
REMARK   15  A    between atoms: N_17  and  C_18
REMARK   16  A    between atoms: N_17  and  C_20
REMARK   17  A    between atoms: N_17  and  C_22
REMARK   18  A    between atoms: C_18  and  C_19
REMARK   19  A    between atoms: C_20  and  C_21
REMARK   20  A    between atoms: C_22  and  C_23
REMARK   21  A    between atoms: C_24  and  C_25
REMARK   22  A    between atoms: N_27  and  C_28
REMARK   23  A    between atoms: C_28  and  C_29
REMARK   24  A    between atoms: C_29  and  C_30
REMARK   25  A    between atoms: C_30  and  C_31
REMARK   26  A    between atoms: C_31  and  C_32
REMARK   27  A    between atoms: C_32  and  C_33
REMARK   28  A    between atoms: N_35  and  N_36
REMARK   29  A    between atoms: N_36  and  C_37
REMARK   30  A    between atoms: C_53  and  O_54
REMARK   31  A    between atoms: O_54  and  C_55
REMARK   32  A    between atoms: C_55  and  C_56
REMARK   33  A    between atoms: C_56  and  N_57
REMARK   34  A    between atoms: N_57  and  C_58
REMARK   35  A    between atoms: N_57  and  C_60
REMARK   36  A    between atoms: N_57  and  C_62
REMARK   37  A    between atoms: C_58  and  C_59
REMARK   38  A    between atoms: C_60  and  C_61
REMARK   39  A    between atoms: C_62  and  C_63
REMARK                            x       y       z     vdW  Elec       q    Type
REMARK                         _______ _______ _______ _____ _____    ______ ____
ROOT
ATOM      1  C   UNL     1      45.334 -14.404 -37.084  0.00  0.00    +0.165 A 
ATOM      2  C   UNL     1      45.286 -15.569 -37.858  0.00  0.00    +0.026 A 
ATOM      3  C   UNL     1      44.090 -16.298 -37.985  0.00  0.00    +0.136 A 
ATOM      4  C   UNL     1      42.921 -15.818 -37.356  0.00  0.00    +0.082 A 
ATOM      5  C   UNL     1      42.984 -14.699 -36.521  0.00  0.00    -0.001 A 
ATOM      6  C   UNL     1      44.215 -14.062 -36.313  0.00  0.00    +0.163 A 
ENDROOT
BRANCH   4   7
ATOM      7  C   UNL     1      41.655 -16.588 -37.517  0.00  0.00    +0.248 C 
ATOM      8  O   UNL     1      40.880 -16.298 -38.421  0.00  0.00    -0.270 OA
ATOM      9  N   UNL     1      41.502 -17.675 -36.682  0.00  0.00    -0.311 N 
ATOM     10  H   UNL     1      41.967 -17.696 -35.814  0.00  0.00    +0.000 HD
BRANCH   9  11
ATOM     11  C   UNL     1      40.658 -18.788 -37.080  0.00  0.00    +0.012 C 
BRANCH  11  12
ATOM     12  C   UNL     1      39.341 -18.887 -36.316  0.00  0.00    -0.037 C 
BRANCH  12  13
ATOM     13  C   UNL     1      38.835 -20.332 -36.366  0.00  0.00    -0.051 C 
BRANCH  13  14
ATOM     14  C   UNL     1      39.816 -21.287 -37.051  0.00  0.00    -0.045 C 
BRANCH  14  15
ATOM     15  C   UNL     1      39.831 -22.663 -36.376  0.00  0.00    +0.025 C 
BRANCH  15  16
ATOM     16  C   UNL     1      40.708 -22.658 -35.139  0.00  0.00    +0.229 C 
ATOM     17  O   UNL     1      40.437 -23.325 -34.143  0.00  0.00    -0.274 OA
ATOM     18  N   UNL     1      41.773 -21.779 -35.231  0.00  0.00    -0.236 N 
ATOM     19  H   UNL     1      42.083 -21.434 -36.100  0.00  0.00    +0.000 HD
BRANCH  18  20
ATOM     20  N   UNL     1      42.399 -21.397 -34.019  0.00  0.00    -0.264 N 
ATOM     21  H   UNL     1      42.679 -22.026 -33.315  0.00  0.00    +0.000 HD
BRANCH  20  22
ATOM     22  C   UNL     1      42.571 -19.984 -33.952  0.00  0.00    +0.058 A 
ATOM     23  C   UNL     1      41.596 -19.169 -33.343  0.00  0.00    -0.003 A 
ATOM     24  C   UNL     1      41.862 -17.801 -33.264  0.00  0.00    +0.047 A 
ATOM     25  N   UNL     1      43.025 -17.246 -33.688  0.00  0.00    -0.251 NA
ATOM     26  C   UNL     1      43.965 -18.025 -34.233  0.00  0.00    +0.074 A 
ATOM     27  C   UNL     1      45.153 -17.433 -34.639  0.00  0.00    -0.017 A 
ATOM     28  C   UNL     1      46.172 -18.181 -35.223  0.00  0.00    +0.043 A 
ATOM     29 CL   UNL     1      47.630 -17.413 -35.719  0.00  0.00    -0.083 Cl
ATOM     30  C   UNL     1      46.012 -19.544 -35.427  0.00  0.00    -0.043 A 
ATOM     31  C   UNL     1      44.824 -20.152 -35.031  0.00  0.00    -0.049 A 
ATOM     32  C   UNL     1      43.791 -19.409 -34.407  0.00  0.00    +0.023 A 
ATOM     33  C   UNL     1      40.892 -16.837 -32.626  0.00  0.00    -0.010 C 
ATOM     34  C   UNL     1      39.470 -17.380 -32.546  0.00  0.00    -0.047 C 
ATOM     35  C   UNL     1      39.489 -18.780 -31.952  0.00  0.00    -0.049 C 
ATOM     36  C   UNL     1      40.285 -19.731 -32.844  0.00  0.00    -0.024 C 
ENDBRANCH  20  22
ENDBRANCH  18  20
ENDBRANCH  15  16
ENDBRANCH  14  15
ENDBRANCH  13  14
ENDBRANCH  12  13
ENDBRANCH  11  12
ENDBRANCH   9  11
ENDBRANCH   4   7
BRANCH   1  37
ATOM     37  O   UNL     1      46.456 -13.641 -36.932  0.00  0.00    -0.490 OA
BRANCH  37  38
ATOM     38  C   UNL     1      46.602 -12.455 -37.723  0.00  0.00    +0.076 C 
BRANCH  38  39
ATOM     39  C   UNL     1      48.165 -12.305 -38.580  0.00  0.00    -0.053 C 
BRANCH  39  40
ATOM     40  N   UNL     1      48.267 -11.914 -39.495  0.00  0.00    +0.382 N 
BRANCH  40  42
ATOM     41  C   UNL     1      49.186 -14.111 -40.012  0.00  0.00    -0.080 C 
ATOM     42  C   UNL     1      48.086 -12.811 -39.898  0.00  0.00    -0.091 C 
ENDBRANCH  40  42
BRANCH  40  43
ATOM     43  C   UNL     1      48.368 -11.523 -40.409  0.00  0.00    -0.091 C 
ATOM     44  C   UNL     1      47.035 -11.215 -41.412  0.00  0.00    -0.080 C 
ENDBRANCH  40  43
BRANCH  40  45
ATOM     45  C   UNL     1      48.447 -11.017 -39.091  0.00  0.00    -0.091 C 
ATOM     46  C   UNL     1      50.144 -10.679 -38.778  0.00  0.00    -0.080 C 
ENDBRANCH  40  45
ENDBRANCH  39  40
ENDBRANCH  38  39
ENDBRANCH  37  38
ENDBRANCH   1  37
BRANCH   6  47
ATOM     47  O   UNL     1      44.248 -13.174 -35.273  0.00  0.00    -0.490 OA
BRANCH  47  48
ATOM     48  C   UNL     1      43.645 -13.594 -34.029  0.00  0.00    +0.076 C 
BRANCH  48  49
ATOM     49  C   UNL     1      43.401 -12.444 -32.988  0.00  0.00    -0.053 C 
BRANCH  49  50
ATOM     50  N   UNL     1      44.748 -12.286 -31.687  0.00  0.00    +0.382 N 
BRANCH  50  51
ATOM     51  C   UNL     1      44.365 -13.102 -31.254  0.00  0.00    -0.091 C 
ATOM     52  C   UNL     1      44.863 -14.542 -30.815  0.00  0.00    -0.080 C 
ENDBRANCH  50  51
BRANCH  50  53
ATOM     53  C   UNL     1      44.263 -11.228 -30.236  0.00  0.00    -0.091 C 
ATOM     54  C   UNL     1      45.432 -11.132 -29.239  0.00  0.00    -0.080 C 
ENDBRANCH  50  53
BRANCH  50  55
ATOM     55  C   UNL     1      45.131 -11.470 -32.120  0.00  0.00    -0.091 C 
ATOM     56  C   UNL     1      46.468 -11.058 -32.851  0.00  0.00    -0.080 C 
ENDBRANCH  50  55
ENDBRANCH  49  50
ENDBRANCH  48  49
ENDBRANCH  47  48
ENDBRANCH   6  47
BRANCH   3  57
ATOM     57  O   UNL     1      43.961 -17.497 -38.632  0.00  0.00    -0.493 OA
BRANCH  57  58
ATOM     58  C   UNL     1      44.931 -18.035 -39.511  0.00  0.00    +0.075 C 
BRANCH  58  59
ATOM     59  C   UNL     1      45.061 -19.586 -39.379  0.00  0.00    -0.053 C 
BRANCH  59  60
ATOM     60  N   UNL     1      45.795 -20.418 -40.890  0.00  0.00    +0.382 N 
BRANCH  60  61
ATOM     61  C   UNL     1      44.874 -20.681 -41.178  0.00  0.00    -0.091 C 
ATOM     62  C   UNL     1      44.461 -20.281 -42.632  0.00  0.00    -0.080 C 
ENDBRANCH  60  61
BRANCH  60  63
ATOM     63  C   UNL     1      46.026 -22.169 -40.248  0.00  0.00    -0.091 C 
ATOM     64  C   UNL     1      46.752 -23.104 -41.217  0.00  0.00    -0.080 C 
ENDBRANCH  60  63
BRANCH  60  65
ATOM     65  C   UNL     1      46.716 -20.156 -40.602  0.00  0.00    -0.091 C 
ATOM     66  C   UNL     1      47.568 -19.517 -41.762  0.00  0.00    -0.080 C 
ENDBRANCH  60  65
ENDBRANCH  59  60
ENDBRANCH  58  59
ENDBRANCH  57  58
ENDBRANCH   3  57
TORSDOF 30
ENDMDL
MODEL 9
REMARK VINA RESULT:    -6.435      2.463      6.450
REMARK INTER + INTRA:          -6.459
REMARK INTER:                 -15.241
REMARK INTRA:                   8.782
REMARK UNBOUND:                 8.064
REMARK  Name = cpd109.pdb
REMARK  39 active torsions:
REMARK  status: ('A' for Active; 'I' for Inactive)
REMARK    1  A    between atoms: C_1  and  C_2
REMARK    2  A    between atoms: C_2  and  N_3
REMARK    3  A    between atoms: N_3  and  C_4
REMARK    4  A    between atoms: N_3  and  C_6
REMARK    5  A    between atoms: N_3  and  C_8
REMARK    6  A    between atoms: C_4  and  C_5
REMARK    7  A    between atoms: C_6  and  C_7
REMARK    8  A    between atoms: C_8  and  C_9
REMARK    9  A    between atoms: C_9  and  O_10
REMARK   10  A    between atoms: O_10  and  C_11
REMARK   11  A    between atoms: C_13  and  O_14
REMARK   12  A    between atoms: O_14  and  C_15
REMARK   13  A    between atoms: C_15  and  C_16
REMARK   14  A    between atoms: C_16  and  N_17
REMARK   15  A    between atoms: N_17  and  C_18
REMARK   16  A    between atoms: N_17  and  C_20
REMARK   17  A    between atoms: N_17  and  C_22
REMARK   18  A    between atoms: C_18  and  C_19
REMARK   19  A    between atoms: C_20  and  C_21
REMARK   20  A    between atoms: C_22  and  C_23
REMARK   21  A    between atoms: C_24  and  C_25
REMARK   22  A    between atoms: N_27  and  C_28
REMARK   23  A    between atoms: C_28  and  C_29
REMARK   24  A    between atoms: C_29  and  C_30
REMARK   25  A    between atoms: C_30  and  C_31
REMARK   26  A    between atoms: C_31  and  C_32
REMARK   27  A    between atoms: C_32  and  C_33
REMARK   28  A    between atoms: N_35  and  N_36
REMARK   29  A    between atoms: N_36  and  C_37
REMARK   30  A    between atoms: C_53  and  O_54
REMARK   31  A    between atoms: O_54  and  C_55
REMARK   32  A    between atoms: C_55  and  C_56
REMARK   33  A    between atoms: C_56  and  N_57
REMARK   34  A    between atoms: N_57  and  C_58
REMARK   35  A    between atoms: N_57  and  C_60
REMARK   36  A    between atoms: N_57  and  C_62
REMARK   37  A    between atoms: C_58  and  C_59
REMARK   38  A    between atoms: C_60  and  C_61
REMARK   39  A    between atoms: C_62  and  C_63
REMARK                            x       y       z     vdW  Elec       q    Type
REMARK                         _______ _______ _______ _____ _____    ______ ____
ROOT
ATOM      1  C   UNL     1      45.165 -19.214 -37.318  0.00  0.00    +0.165 A 
ATOM      2  C   UNL     1      44.204 -19.607 -36.380  0.00  0.00    +0.026 A 
ATOM      3  C   UNL     1      44.100 -18.950 -35.141  0.00  0.00    +0.136 A 
ATOM      4  C   UNL     1      44.950 -17.856 -34.868  0.00  0.00    +0.082 A 
ATOM      5  C   UNL     1      45.960 -17.511 -35.771  0.00  0.00    -0.001 A 
ATOM      6  C   UNL     1      46.121 -18.261 -36.944  0.00  0.00    +0.163 A 
ENDROOT
BRANCH   4   7
ATOM      7  C   UNL     1      44.815 -17.153 -33.561  0.00  0.00    +0.248 C 
ATOM      8  O   UNL     1      45.525 -17.483 -32.618  0.00  0.00    -0.270 OA
ATOM      9  N   UNL     1      43.954 -16.075 -33.545  0.00  0.00    -0.311 N 
ATOM     10  H   UNL     1      43.213 -16.029 -34.191  0.00  0.00    +0.000 HD
BRANCH   9  11
ATOM     11  C   UNL     1      44.141 -15.007 -32.578  0.00  0.00    +0.012 C 
BRANCH  11  12
ATOM     12  C   UNL     1      42.880 -14.621 -31.811  0.00  0.00    -0.037 C 
BRANCH  12  13
ATOM     13  C   UNL     1      41.682 -14.641 -32.766  0.00  0.00    -0.051 C 
BRANCH  13  14
ATOM     14  C   UNL     1      40.562 -15.576 -32.303  0.00  0.00    -0.045 C 
BRANCH  14  15
ATOM     15  C   UNL     1      40.620 -16.929 -33.021  0.00  0.00    +0.025 C 
BRANCH  15  16
ATOM     16  C   UNL     1      40.068 -16.826 -34.430  0.00  0.00    +0.229 C 
ATOM     17  O   UNL     1      39.155 -16.057 -34.720  0.00  0.00    -0.274 OA
ATOM     18  N   UNL     1      40.640 -17.732 -35.305  0.00  0.00    -0.236 N 
ATOM     19  H   UNL     1      41.500 -18.170 -35.104  0.00  0.00    +0.000 HD
BRANCH  18  20
ATOM     20  N   UNL     1      39.936 -18.003 -36.503  0.00  0.00    -0.264 N 
ATOM     21  H   UNL     1      38.956 -18.059 -36.572  0.00  0.00    +0.000 HD
BRANCH  20  22
ATOM     22  C   UNL     1      40.832 -18.182 -37.598  0.00  0.00    +0.058 A 
ATOM     23  C   UNL     1      41.058 -19.464 -38.140  0.00  0.00    -0.003 A 
ATOM     24  C   UNL     1      41.904 -19.551 -39.247  0.00  0.00    +0.047 A 
ATOM     25  N   UNL     1      42.457 -18.467 -39.845  0.00  0.00    -0.251 NA
ATOM     26  C   UNL     1      42.214 -17.248 -39.352  0.00  0.00    +0.074 A 
ATOM     27  C   UNL     1      42.776 -16.156 -39.998  0.00  0.00    -0.017 A 
ATOM     28  C   UNL     1      42.573 -14.858 -39.535  0.00  0.00    +0.043 A 
ATOM     29 CL   UNL     1      43.290 -13.527 -40.357  0.00  0.00    -0.083 Cl
ATOM     30  C   UNL     1      41.809 -14.631 -38.400  0.00  0.00    -0.043 A 
ATOM     31  C   UNL     1      41.243 -15.716 -37.737  0.00  0.00    -0.049 A 
ATOM     32  C   UNL     1      41.415 -17.040 -38.214  0.00  0.00    +0.023 A 
ATOM     33  C   UNL     1      42.210 -20.871 -39.912  0.00  0.00    -0.010 C 
ATOM     34  C   UNL     1      41.943 -22.073 -39.013  0.00  0.00    -0.047 C 
ATOM     35  C   UNL     1      40.556 -21.954 -38.398  0.00  0.00    -0.049 C 
ATOM     36  C   UNL     1      40.462 -20.707 -37.521  0.00  0.00    -0.024 C 
ENDBRANCH  20  22
ENDBRANCH  18  20
ENDBRANCH  15  16
ENDBRANCH  14  15
ENDBRANCH  13  14
ENDBRANCH  12  13
ENDBRANCH  11  12
ENDBRANCH   9  11
ENDBRANCH   4   7
BRANCH   1  37
ATOM     37  O   UNL     1      45.308 -19.798 -38.545  0.00  0.00    -0.490 OA
BRANCH  37  38
ATOM     38  C   UNL     1      45.945 -21.079 -38.633  0.00  0.00    +0.076 C 
BRANCH  38  39
ATOM     39  C   UNL     1      45.931 -21.819 -40.261  0.00  0.00    -0.053 C 
BRANCH  39  40
ATOM     40  N   UNL     1      46.485 -21.495 -41.028  0.00  0.00    +0.382 N 
BRANCH  40  42
ATOM     41  C   UNL     1      48.080 -23.337 -40.987  0.00  0.00    -0.080 C 
ATOM     42  C   UNL     1      47.305 -21.868 -40.594  0.00  0.00    -0.091 C 
ENDBRANCH  40  42
BRANCH  40  43
ATOM     43  C   UNL     1      47.040 -21.171 -41.795  0.00  0.00    -0.091 C 
ATOM     44  C   UNL     1      47.747 -19.629 -41.808  0.00  0.00    -0.080 C 
ENDBRANCH  40  43
BRANCH  40  45
ATOM     45  C   UNL     1      45.666 -21.122 -41.463  0.00  0.00    -0.091 C 
ATOM     46  C   UNL     1      45.016 -22.100 -42.771  0.00  0.00    -0.080 C 
ENDBRANCH  40  45
ENDBRANCH  39  40
ENDBRANCH  38  39
ENDBRANCH  37  38
ENDBRANCH   1  37
BRANCH   6  47
ATOM     47  O   UNL     1      47.293 -18.051 -37.619  0.00  0.00    -0.490 OA
BRANCH  47  48
ATOM     48  C   UNL     1      47.218 -17.298 -38.849  0.00  0.00    +0.076 C 
BRANCH  48  49
ATOM     49  C   UNL     1      46.043 -16.259 -38.921  0.00  0.00    -0.053 C 
BRANCH  49  50
ATOM     50  N   UNL     1      46.587 -14.470 -38.732  0.00  0.00    +0.382 N 
BRANCH  50  51
ATOM     51  C   UNL     1      46.926 -14.519 -39.672  0.00  0.00    -0.091 C 
ATOM     52  C   UNL     1      46.743 -13.720 -41.030  0.00  0.00    -0.080 C 
ENDBRANCH  50  51
BRANCH  50  53
ATOM     53  C   UNL     1      48.314 -14.282 -38.067  0.00  0.00    -0.091 C 
ATOM     54  C   UNL     1      48.673 -12.790 -37.946  0.00  0.00    -0.080 C 
ENDBRANCH  50  53
BRANCH  50  55
ATOM     55  C   UNL     1      46.249 -14.420 -37.793  0.00  0.00    -0.091 C 
ATOM     56  C   UNL     1      45.134 -13.637 -36.996  0.00  0.00    -0.080 C 
ENDBRANCH  50  55
ENDBRANCH  49  50
ENDBRANCH  48  49
ENDBRANCH  47  48
ENDBRANCH   6  47
BRANCH   3  57
ATOM     57  O   UNL     1      43.268 -19.317 -34.119  0.00  0.00    -0.493 OA
BRANCH  57  58
ATOM     58  C   UNL     1      42.364 -20.405 -34.181  0.00  0.00    +0.075 C 
BRANCH  58  59
ATOM     59  C   UNL     1      41.637 -20.655 -32.821  0.00  0.00    -0.053 C 
BRANCH  59  60
ATOM     60  N   UNL     1      40.195 -21.847 -32.938  0.00  0.00    +0.382 N 
BRANCH  60  61
ATOM     61  C   UNL     1      39.728 -21.333 -32.218  0.00  0.00    -0.091 C 
ATOM     62  C   UNL     1      38.316 -20.764 -32.574  0.00  0.00    -0.080 C 
ENDBRANCH  60  61
BRANCH  60  63
ATOM     63  C   UNL     1      40.678 -23.112 -31.635  0.00  0.00    -0.091 C 
ATOM     64  C   UNL     1      41.851 -24.008 -32.033  0.00  0.00    -0.080 C 
ENDBRANCH  60  63
BRANCH  60  65
ATOM     65  C   UNL     1      40.662 -22.360 -33.658  0.00  0.00    -0.091 C 
ATOM     66  C   UNL     1      39.677 -22.938 -34.741  0.00  0.00    -0.080 C 
ENDBRANCH  60  65
ENDBRANCH  59  60
ENDBRANCH  58  59
ENDBRANCH  57  58
ENDBRANCH   3  57
TORSDOF 30
ENDMDL
MODEL 10
REMARK VINA RESULT:    -6.418      2.297      6.646
REMARK INTER + INTRA:          -6.421
REMARK INTER:                 -14.659
REMARK INTRA:                   8.238
REMARK UNBOUND:                 8.064
REMARK  Name = cpd109.pdb
REMARK  39 active torsions:
REMARK  status: ('A' for Active; 'I' for Inactive)
REMARK    1  A    between atoms: C_1  and  C_2
REMARK    2  A    between atoms: C_2  and  N_3
REMARK    3  A    between atoms: N_3  and  C_4
REMARK    4  A    between atoms: N_3  and  C_6
REMARK    5  A    between atoms: N_3  and  C_8
REMARK    6  A    between atoms: C_4  and  C_5
REMARK    7  A    between atoms: C_6  and  C_7
REMARK    8  A    between atoms: C_8  and  C_9
REMARK    9  A    between atoms: C_9  and  O_10
REMARK   10  A    between atoms: O_10  and  C_11
REMARK   11  A    between atoms: C_13  and  O_14
REMARK   12  A    between atoms: O_14  and  C_15
REMARK   13  A    between atoms: C_15  and  C_16
REMARK   14  A    between atoms: C_16  and  N_17
REMARK   15  A    between atoms: N_17  and  C_18
REMARK   16  A    between atoms: N_17  and  C_20
REMARK   17  A    between atoms: N_17  and  C_22
REMARK   18  A    between atoms: C_18  and  C_19
REMARK   19  A    between atoms: C_20  and  C_21
REMARK   20  A    between atoms: C_22  and  C_23
REMARK   21  A    between atoms: C_24  and  C_25
REMARK   22  A    between atoms: N_27  and  C_28
REMARK   23  A    between atoms: C_28  and  C_29
REMARK   24  A    between atoms: C_29  and  C_30
REMARK   25  A    between atoms: C_30  and  C_31
REMARK   26  A    between atoms: C_31  and  C_32
REMARK   27  A    between atoms: C_32  and  C_33
REMARK   28  A    between atoms: N_35  and  N_36
REMARK   29  A    between atoms: N_36  and  C_37
REMARK   30  A    between atoms: C_53  and  O_54
REMARK   31  A    between atoms: O_54  and  C_55
REMARK   32  A    between atoms: C_55  and  C_56
REMARK   33  A    between atoms: C_56  and  N_57
REMARK   34  A    between atoms: N_57  and  C_58
REMARK   35  A    between atoms: N_57  and  C_60
REMARK   36  A    between atoms: N_57  and  C_62
REMARK   37  A    between atoms: C_58  and  C_59
REMARK   38  A    between atoms: C_60  and  C_61
REMARK   39  A    between atoms: C_62  and  C_63
REMARK                            x       y       z     vdW  Elec       q    Type
REMARK                         _______ _______ _______ _____ _____    ______ ____
ROOT
ATOM      1  C   UNL     1      43.431 -15.747 -37.299  0.00  0.00    +0.165 A 
ATOM      2  C   UNL     1      44.560 -16.540 -37.533  0.00  0.00    +0.026 A 
ATOM      3  C   UNL     1      44.454 -17.942 -37.583  0.00  0.00    +0.136 A 
ATOM      4  C   UNL     1      43.185 -18.542 -37.437  0.00  0.00    +0.082 A 
ATOM      5  C   UNL     1      42.070 -17.757 -37.127  0.00  0.00    -0.001 A 
ATOM      6  C   UNL     1      42.225 -16.375 -36.961  0.00  0.00    +0.163 A 
ENDROOT
BRANCH   4   7
ATOM      7  C   UNL     1      43.083 -20.027 -37.514  0.00  0.00    +0.248 C 
ATOM      8  O   UNL     1      43.042 -20.687 -36.483  0.00  0.00    -0.270 OA
ATOM      9  N   UNL     1      42.921 -20.553 -38.780  0.00  0.00    -0.311 N 
ATOM     10  H   UNL     1      43.249 -20.055 -39.563  0.00  0.00    +0.000 HD
BRANCH   9  11
ATOM     11  C   UNL     1      42.269 -21.838 -38.957  0.00  0.00    +0.012 C 
BRANCH  11  12
ATOM     12  C   UNL     1      40.747 -21.794 -38.858  0.00  0.00    -0.037 C 
BRANCH  12  13
ATOM     13  C   UNL     1      40.284 -22.756 -37.760  0.00  0.00    -0.051 C 
BRANCH  13  14
ATOM     14  C   UNL     1      39.874 -22.042 -36.470  0.00  0.00    -0.045 C 
BRANCH  14  15
ATOM     15  C   UNL     1      39.588 -23.035 -35.338  0.00  0.00    +0.025 C 
BRANCH  15  16
ATOM     16  C   UNL     1      40.541 -22.833 -34.176  0.00  0.00    +0.229 C 
ATOM     17  O   UNL     1      40.465 -23.498 -33.146  0.00  0.00    -0.274 OA
ATOM     18  N   UNL     1      41.427 -21.788 -34.374  0.00  0.00    -0.236 N 
ATOM     19  H   UNL     1      41.606 -21.429 -35.273  0.00  0.00    +0.000 HD
BRANCH  18  20
ATOM     20  N   UNL     1      42.065 -21.259 -33.226  0.00  0.00    -0.264 N 
ATOM     21  H   UNL     1      42.550 -21.799 -32.561  0.00  0.00    +0.000 HD
BRANCH  20  22
ATOM     22  C   UNL     1      41.914 -19.843 -33.160  0.00  0.00    +0.058 A 
ATOM     23  C   UNL     1      43.005 -18.991 -33.422  0.00  0.00    -0.003 A 
ATOM     24  C   UNL     1      42.766 -17.615 -33.395  0.00  0.00    +0.047 A 
ATOM     25  N   UNL     1      41.536 -17.082 -33.190  0.00  0.00    -0.251 NA
ATOM     26  C   UNL     1      40.494 -17.892 -32.977  0.00  0.00    +0.074 A 
ATOM     27  C   UNL     1      39.244 -17.317 -32.791  0.00  0.00    -0.017 A 
ATOM     28  C   UNL     1      38.116 -18.099 -32.556  0.00  0.00    +0.043 A 
ATOM     29 CL   UNL     1      36.582 -17.354 -32.325  0.00  0.00    -0.083 Cl
ATOM     30  C   UNL     1      38.223 -19.481 -32.488  0.00  0.00    -0.043 A 
ATOM     31  C   UNL     1      39.471 -20.072 -32.665  0.00  0.00    -0.049 A 
ATOM     32  C   UNL     1      40.622 -19.291 -32.936  0.00  0.00    +0.023 A 
ATOM     33  C   UNL     1      43.859 -16.612 -33.668  0.00  0.00    -0.010 C 
ATOM     34  C   UNL     1      45.259 -17.182 -33.479  0.00  0.00    -0.047 C 
ATOM     35  C   UNL     1      45.380 -18.502 -34.226  0.00  0.00    -0.049 C 
ATOM     36  C   UNL     1      44.396 -19.528 -33.665  0.00  0.00    -0.024 C 
ENDBRANCH  20  22
ENDBRANCH  18  20
ENDBRANCH  15  16
ENDBRANCH  14  15
ENDBRANCH  13  14
ENDBRANCH  12  13
ENDBRANCH  11  12
ENDBRANCH   9  11
ENDBRANCH   4   7
BRANCH   1  37
ATOM     37  O   UNL     1      43.461 -14.382 -37.255  0.00  0.00    -0.490 OA
BRANCH  37  38
ATOM     38  C   UNL     1      44.480 -13.734 -36.483  0.00  0.00    +0.076 C 
BRANCH  38  39
ATOM     39  C   UNL     1      45.841 -13.069 -37.434  0.00  0.00    -0.053 C 
BRANCH  39  40
ATOM     40  N   UNL     1      46.408 -12.300 -37.139  0.00  0.00    +0.382 N 
BRANCH  40  42
ATOM     41  C   UNL     1      45.533 -10.762 -38.814  0.00  0.00    -0.080 C 
ATOM     42  C   UNL     1      45.671 -11.667 -37.374  0.00  0.00    -0.091 C 
ENDBRANCH  40  42
BRANCH  40  43
ATOM     43  C   UNL     1      46.974 -11.531 -36.843  0.00  0.00    -0.091 C 
ATOM     44  C   UNL     1      47.032 -11.023 -35.225  0.00  0.00    -0.080 C 
ENDBRANCH  40  43
BRANCH  40  45
ATOM     45  C   UNL     1      47.145 -12.934 -36.904  0.00  0.00    -0.091 C 
ATOM     46  C   UNL     1      48.293 -13.240 -38.200  0.00  0.00    -0.080 C 
ENDBRANCH  40  45
ENDBRANCH  39  40
ENDBRANCH  38  39
ENDBRANCH  37  38
ENDBRANCH   1  37
BRANCH   6  47
ATOM     47  O   UNL     1      41.167 -15.731 -36.380  0.00  0.00    -0.490 OA
BRANCH  47  48
ATOM     48  C   UNL     1      40.002 -15.503 -37.205  0.00  0.00    +0.076 C 
BRANCH  48  49
ATOM     49  C   UNL     1      38.636 -15.917 -36.552  0.00  0.00    -0.053 C 
BRANCH  49  50
ATOM     50  N   UNL     1      37.605 -17.085 -37.604  0.00  0.00    +0.382 N 
BRANCH  50  51
ATOM     51  C   UNL     1      38.160 -17.833 -37.240  0.00  0.00    -0.091 C 
ATOM     52  C   UNL     1      38.004 -19.008 -36.187  0.00  0.00    -0.080 C 
ENDBRANCH  50  51
BRANCH  50  53
ATOM     53  C   UNL     1      38.285 -17.346 -39.315  0.00  0.00    -0.091 C 
ATOM     54  C   UNL     1      39.112 -18.643 -39.361  0.00  0.00    -0.080 C 
ENDBRANCH  50  53
BRANCH  50  55
ATOM     55  C   UNL     1      37.049 -16.338 -37.967  0.00  0.00    -0.091 C 
ATOM     56  C   UNL     1      35.523 -15.937 -38.013  0.00  0.00    -0.080 C 
ENDBRANCH  50  55
ENDBRANCH  49  50
ENDBRANCH  48  49
ENDBRANCH  47  48
ENDBRANCH   6  47
BRANCH   3  57
ATOM     57  O   UNL     1      45.505 -18.809 -37.705  0.00  0.00    -0.493 OA
BRANCH  57  58
ATOM     58  C   UNL     1      46.500 -18.717 -38.708  0.00  0.00    +0.075 C 
BRANCH  58  59
ATOM     59  C   UNL     1      45.917 -18.900 -40.146  0.00  0.00    -0.053 C 
BRANCH  59  60
ATOM     60  N   UNL     1      46.585 -20.399 -41.052  0.00  0.00    +0.382 N 
BRANCH  60  61
ATOM     61  C   UNL     1      46.872 -19.802 -41.801  0.00  0.00    -0.091 C 
ATOM     62  C   UNL     1      48.358 -19.939 -42.269  0.00  0.00    -0.080 C 
ENDBRANCH  60  61
BRANCH  60  63
ATOM     63  C   UNL     1      45.093 -20.877 -42.088  0.00  0.00    -0.091 C 
ATOM     64  C   UNL     1      45.261 -22.180 -42.871  0.00  0.00    -0.080 C 
ENDBRANCH  60  63
BRANCH  60  65
ATOM     65  C   UNL     1      46.299 -20.995 -40.302  0.00  0.00    -0.091 C 
ATOM     66  C   UNL     1      47.423 -21.999 -39.847  0.00  0.00    -0.080 C 
ENDBRANCH  60  65
ENDBRANCH  59  60
ENDBRANCH  58  59
ENDBRANCH  57  58
ENDBRANCH   3  57
TORSDOF 30
ENDMDL
MODEL 11
REMARK VINA RESULT:    -6.360      2.706      9.026
REMARK INTER + INTRA:          -6.290
REMARK INTER:                 -13.338
REMARK INTRA:                   7.048
REMARK UNBOUND:                 8.064
REMARK  Name = cpd109.pdb
REMARK  39 active torsions:
REMARK  status: ('A' for Active; 'I' for Inactive)
REMARK    1  A    between atoms: C_1  and  C_2
REMARK    2  A    between atoms: C_2  and  N_3
REMARK    3  A    between atoms: N_3  and  C_4
REMARK    4  A    between atoms: N_3  and  C_6
REMARK    5  A    between atoms: N_3  and  C_8
REMARK    6  A    between atoms: C_4  and  C_5
REMARK    7  A    between atoms: C_6  and  C_7
REMARK    8  A    between atoms: C_8  and  C_9
REMARK    9  A    between atoms: C_9  and  O_10
REMARK   10  A    between atoms: O_10  and  C_11
REMARK   11  A    between atoms: C_13  and  O_14
REMARK   12  A    between atoms: O_14  and  C_15
REMARK   13  A    between atoms: C_15  and  C_16
REMARK   14  A    between atoms: C_16  and  N_17
REMARK   15  A    between atoms: N_17  and  C_18
REMARK   16  A    between atoms: N_17  and  C_20
REMARK   17  A    between atoms: N_17  and  C_22
REMARK   18  A    between atoms: C_18  and  C_19
REMARK   19  A    between atoms: C_20  and  C_21
REMARK   20  A    between atoms: C_22  and  C_23
REMARK   21  A    between atoms: C_24  and  C_25
REMARK   22  A    between atoms: N_27  and  C_28
REMARK   23  A    between atoms: C_28  and  C_29
REMARK   24  A    between atoms: C_29  and  C_30
REMARK   25  A    between atoms: C_30  and  C_31
REMARK   26  A    between atoms: C_31  and  C_32
REMARK   27  A    between atoms: C_32  and  C_33
REMARK   28  A    between atoms: N_35  and  N_36
REMARK   29  A    between atoms: N_36  and  C_37
REMARK   30  A    between atoms: C_53  and  O_54
REMARK   31  A    between atoms: O_54  and  C_55
REMARK   32  A    between atoms: C_55  and  C_56
REMARK   33  A    between atoms: C_56  and  N_57
REMARK   34  A    between atoms: N_57  and  C_58
REMARK   35  A    between atoms: N_57  and  C_60
REMARK   36  A    between atoms: N_57  and  C_62
REMARK   37  A    between atoms: C_58  and  C_59
REMARK   38  A    between atoms: C_60  and  C_61
REMARK   39  A    between atoms: C_62  and  C_63
REMARK                            x       y       z     vdW  Elec       q    Type
REMARK                         _______ _______ _______ _____ _____    ______ ____
ROOT
ATOM      1  C   UNL     1      41.713 -20.079 -37.085  0.00  0.00    +0.165 A 
ATOM      2  C   UNL     1      43.005 -19.820 -37.557  0.00  0.00    +0.026 A 
ATOM      3  C   UNL     1      43.484 -18.502 -37.650  0.00  0.00    +0.136 A 
ATOM      4  C   UNL     1      42.662 -17.438 -37.219  0.00  0.00    +0.082 A 
ATOM      5  C   UNL     1      41.345 -17.688 -36.819  0.00  0.00    -0.001 A 
ATOM      6  C   UNL     1      40.851 -18.999 -36.853  0.00  0.00    +0.163 A 
ENDROOT
BRANCH   4   7
ATOM      7  C   UNL     1      43.190 -16.047 -37.301  0.00  0.00    +0.248 C 
ATOM      8  O   UNL     1      43.747 -15.551 -36.329  0.00  0.00    -0.270 OA
ATOM      9  N   UNL     1      43.110 -15.446 -38.541  0.00  0.00    -0.311 N 
ATOM     10  H   UNL     1      42.420 -15.734 -39.182  0.00  0.00    +0.000 HD
BRANCH   9  11
ATOM     11  C   UNL     1      44.041 -14.391 -38.901  0.00  0.00    +0.012 C 
BRANCH  11  12
ATOM     12  C   UNL     1      43.482 -12.979 -38.756  0.00  0.00    -0.037 C 
BRANCH  12  13
ATOM     13  C   UNL     1      44.317 -12.209 -37.727  0.00  0.00    -0.051 C 
BRANCH  13  14
ATOM     14  C   UNL     1      43.589 -12.005 -36.396  0.00  0.00    -0.045 C 
BRANCH  14  15
ATOM     15  C   UNL     1      44.570 -11.741 -35.249  0.00  0.00    +0.025 C 
BRANCH  15  16
ATOM     16  C   UNL     1      44.071 -12.342 -33.949  0.00  0.00    +0.229 C 
ATOM     17  O   UNL     1      43.842 -11.655 -32.957  0.00  0.00    -0.274 OA
ATOM     18  N   UNL     1      43.983 -13.723 -33.987  0.00  0.00    -0.236 N 
ATOM     19  H   UNL     1      43.960 -14.214 -34.840  0.00  0.00    +0.000 HD
BRANCH  18  20
ATOM     20  N   UNL     1      43.927 -14.398 -32.743  0.00  0.00    -0.264 N 
ATOM     21  H   UNL     1      44.381 -14.094 -31.924  0.00  0.00    +0.000 HD
BRANCH  20  22
ATOM     22  C   UNL     1      43.128 -15.576 -32.832  0.00  0.00    +0.058 A 
ATOM     23  C   UNL     1      41.739 -15.521 -32.601  0.00  0.00    -0.003 A 
ATOM     24  C   UNL     1      41.015 -16.704 -32.763  0.00  0.00    +0.047 A 
ATOM     25  N   UNL     1      41.577 -17.864 -33.185  0.00  0.00    -0.251 NA
ATOM     26  C   UNL     1      42.889 -17.907 -33.439  0.00  0.00    +0.074 A 
ATOM     27  C   UNL     1      43.431 -19.102 -33.889  0.00  0.00    -0.017 A 
ATOM     28  C   UNL     1      44.791 -19.221 -34.165  0.00  0.00    +0.043 A 
ATOM     29 CL   UNL     1      45.431 -20.721 -34.716  0.00  0.00    -0.083 Cl
ATOM     30  C   UNL     1      45.641 -18.141 -33.979  0.00  0.00    -0.043 A 
ATOM     31  C   UNL     1      45.114 -16.937 -33.522  0.00  0.00    -0.049 A 
ATOM     32  C   UNL     1      43.727 -16.791 -33.267  0.00  0.00    +0.023 A 
ATOM     33  C   UNL     1      39.523 -16.759 -32.550  0.00  0.00    -0.010 C 
ATOM     34  C   UNL     1      38.995 -15.610 -31.699  0.00  0.00    -0.047 C 
ATOM     35  C   UNL     1      39.532 -14.290 -32.230  0.00  0.00    -0.049 C 
ATOM     36  C   UNL     1      41.057 -14.255 -32.138  0.00  0.00    -0.024 C 
ENDBRANCH  20  22
ENDBRANCH  18  20
ENDBRANCH  15  16
ENDBRANCH  14  15
ENDBRANCH  13  14
ENDBRANCH  12  13
ENDBRANCH  11  12
ENDBRANCH   9  11
ENDBRANCH   4   7
BRANCH   1  37
ATOM     37  O   UNL     1      41.192 -21.335 -36.954  0.00  0.00    -0.490 OA
BRANCH  37  38
ATOM     38  C   UNL     1      41.319 -22.012 -35.697  0.00  0.00    +0.076 C 
BRANCH  38  39
ATOM     39  C   UNL     1      39.910 -21.853 -34.607  0.00  0.00    -0.053 C 
BRANCH  39  40
ATOM     40  N   UNL     1      39.914 -22.123 -33.644  0.00  0.00    +0.382 N 
BRANCH  40  42
ATOM     41  C   UNL     1      38.313 -23.928 -33.985  0.00  0.00    -0.080 C 
ATOM     42  C   UNL     1      39.791 -23.078 -33.911  0.00  0.00    -0.091 C 
ENDBRANCH  40  42
BRANCH  40  43
ATOM     43  C   UNL     1      39.918 -22.392 -32.681  0.00  0.00    -0.091 C 
ATOM     44  C   UNL     1      41.316 -22.970 -31.912  0.00  0.00    -0.080 C 
ENDBRANCH  40  43
BRANCH  40  45
ATOM     45  C   UNL     1      40.037 -21.167 -33.376  0.00  0.00    -0.091 C 
ATOM     46  C   UNL     1      38.561 -20.344 -32.888  0.00  0.00    -0.080 C 
ENDBRANCH  40  45
ENDBRANCH  39  40
ENDBRANCH  38  39
ENDBRANCH  37  38
ENDBRANCH   1  37
BRANCH   6  47
ATOM     47  O   UNL     1      39.494 -19.118 -36.732  0.00  0.00    -0.490 OA
BRANCH  47  48
ATOM     48  C   UNL     1      38.824 -18.172 -35.869  0.00  0.00    +0.076 C 
BRANCH  48  49
ATOM     49  C   UNL     1      37.655 -17.370 -36.544  0.00  0.00    -0.053 C 
BRANCH  49  50
ATOM     50  N   UNL     1      38.225 -15.926 -37.603  0.00  0.00    +0.382 N 
BRANCH  50  51
ATOM     51  C   UNL     1      38.327 -15.402 -36.758  0.00  0.00    -0.091 C 
ATOM     52  C   UNL     1      39.468 -14.600 -36.003  0.00  0.00    -0.080 C 
ENDBRANCH  50  51
BRANCH  50  53
ATOM     53  C   UNL     1      36.837 -14.827 -38.175  0.00  0.00    -0.091 C 
ATOM     54  C   UNL     1      35.600 -15.677 -38.519  0.00  0.00    -0.080 C 
ENDBRANCH  50  53
BRANCH  50  55
ATOM     55  C   UNL     1      38.123 -16.450 -38.449  0.00  0.00    -0.091 C 
ATOM     56  C   UNL     1      39.042 -16.933 -39.638  0.00  0.00    -0.080 C 
ENDBRANCH  50  55
ENDBRANCH  49  50
ENDBRANCH  48  49
ENDBRANCH  47  48
ENDBRANCH   6  47
BRANCH   3  57
ATOM     57  O   UNL     1      44.687 -18.134 -38.189  0.00  0.00    -0.493 OA
BRANCH  57  58
ATOM     58  C   UNL     1      45.012 -18.251 -39.562  0.00  0.00    +0.075 C 
BRANCH  58  59
ATOM     59  C   UNL     1      45.854 -19.531 -39.868  0.00  0.00    -0.053 C 
BRANCH  59  60
ATOM     60  N   UNL     1      45.121 -20.621 -41.205  0.00  0.00    +0.382 N 
BRANCH  60  61
ATOM     61  C   UNL     1      44.802 -21.252 -40.498  0.00  0.00    -0.091 C 
ATOM     62  C   UNL     1      43.273 -21.584 -40.501  0.00  0.00    -0.080 C 
ENDBRANCH  60  61
BRANCH  60  63
ATOM     63  C   UNL     1      46.551 -21.798 -41.522  0.00  0.00    -0.091 C 
ATOM     64  C   UNL     1      46.269 -22.859 -42.587  0.00  0.00    -0.080 C 
ENDBRANCH  60  63
BRANCH  60  65
ATOM     65  C   UNL     1      45.440 -19.990 -41.912  0.00  0.00    -0.091 C 
ATOM     66  C   UNL     1      44.335 -19.650 -42.981  0.00  0.00    -0.080 C 
ENDBRANCH  60  65
ENDBRANCH  59  60
ENDBRANCH  58  59
ENDBRANCH  57  58
ENDBRANCH   3  57
TORSDOF 30
ENDMDL
MODEL 12
REMARK VINA RESULT:    -6.345      2.293      5.999
REMARK INTER + INTRA:          -6.256
REMARK INTER:                 -15.164
REMARK INTRA:                   8.908
REMARK UNBOUND:                 8.064
REMARK  Name = cpd109.pdb
REMARK  39 active torsions:
REMARK  status: ('A' for Active; 'I' for Inactive)
REMARK    1  A    between atoms: C_1  and  C_2
REMARK    2  A    between atoms: C_2  and  N_3
REMARK    3  A    between atoms: N_3  and  C_4
REMARK    4  A    between atoms: N_3  and  C_6
REMARK    5  A    between atoms: N_3  and  C_8
REMARK    6  A    between atoms: C_4  and  C_5
REMARK    7  A    between atoms: C_6  and  C_7
REMARK    8  A    between atoms: C_8  and  C_9
REMARK    9  A    between atoms: C_9  and  O_10
REMARK   10  A    between atoms: O_10  and  C_11
REMARK   11  A    between atoms: C_13  and  O_14
REMARK   12  A    between atoms: O_14  and  C_15
REMARK   13  A    between atoms: C_15  and  C_16
REMARK   14  A    between atoms: C_16  and  N_17
REMARK   15  A    between atoms: N_17  and  C_18
REMARK   16  A    between atoms: N_17  and  C_20
REMARK   17  A    between atoms: N_17  and  C_22
REMARK   18  A    between atoms: C_18  and  C_19
REMARK   19  A    between atoms: C_20  and  C_21
REMARK   20  A    between atoms: C_22  and  C_23
REMARK   21  A    between atoms: C_24  and  C_25
REMARK   22  A    between atoms: N_27  and  C_28
REMARK   23  A    between atoms: C_28  and  C_29
REMARK   24  A    between atoms: C_29  and  C_30
REMARK   25  A    between atoms: C_30  and  C_31
REMARK   26  A    between atoms: C_31  and  C_32
REMARK   27  A    between atoms: C_32  and  C_33
REMARK   28  A    between atoms: N_35  and  N_36
REMARK   29  A    between atoms: N_36  and  C_37
REMARK   30  A    between atoms: C_53  and  O_54
REMARK   31  A    between atoms: O_54  and  C_55
REMARK   32  A    between atoms: C_55  and  C_56
REMARK   33  A    between atoms: C_56  and  N_57
REMARK   34  A    between atoms: N_57  and  C_58
REMARK   35  A    between atoms: N_57  and  C_60
REMARK   36  A    between atoms: N_57  and  C_62
REMARK   37  A    between atoms: C_58  and  C_59
REMARK   38  A    between atoms: C_60  and  C_61
REMARK   39  A    between atoms: C_62  and  C_63
REMARK                            x       y       z     vdW  Elec       q    Type
REMARK                         _______ _______ _______ _____ _____    ______ ____
ROOT
ATOM      1  C   UNL     1      44.654 -18.972 -37.506  0.00  0.00    +0.165 A 
ATOM      2  C   UNL     1      43.659 -19.247 -36.562  0.00  0.00    +0.026 A 
ATOM      3  C   UNL     1      43.708 -18.673 -35.279  0.00  0.00    +0.136 A 
ATOM      4  C   UNL     1      44.754 -17.778 -34.965  0.00  0.00    +0.082 A 
ATOM      5  C   UNL     1      45.789 -17.563 -35.879  0.00  0.00    -0.001 A 
ATOM      6  C   UNL     1      45.781 -18.243 -37.104  0.00  0.00    +0.163 A 
ENDROOT
BRANCH   4   7
ATOM      7  C   UNL     1      44.782 -17.159 -33.610  0.00  0.00    +0.248 C 
ATOM      8  O   UNL     1      45.592 -17.554 -32.779  0.00  0.00    -0.270 OA
ATOM      9  N   UNL     1      43.946 -16.077 -33.426  0.00  0.00    -0.311 N 
ATOM     10  H   UNL     1      43.135 -15.985 -33.976  0.00  0.00    +0.000 HD
BRANCH   9  11
ATOM     11  C   UNL     1      44.260 -15.074 -32.423  0.00  0.00    +0.012 C 
BRANCH  11  12
ATOM     12  C   UNL     1      44.231 -13.638 -32.935  0.00  0.00    -0.037 C 
BRANCH  12  13
ATOM     13  C   UNL     1      43.331 -12.795 -32.027  0.00  0.00    -0.051 C 
BRANCH  13  14
ATOM     14  C   UNL     1      42.094 -13.554 -31.538  0.00  0.00    -0.045 C 
BRANCH  14  15
ATOM     15  C   UNL     1      41.059 -13.730 -32.654  0.00  0.00    +0.025 C 
BRANCH  15  16
ATOM     16  C   UNL     1      40.597 -15.171 -32.752  0.00  0.00    +0.229 C 
ATOM     17  O   UNL     1      40.418 -15.869 -31.756  0.00  0.00    -0.274 OA
ATOM     18  N   UNL     1      40.482 -15.618 -34.056  0.00  0.00    -0.236 N 
ATOM     19  H   UNL     1      40.418 -14.990 -34.812  0.00  0.00    +0.000 HD
BRANCH  18  20
ATOM     20  N   UNL     1      40.461 -17.020 -34.257  0.00  0.00    -0.264 N 
ATOM     21  H   UNL     1      41.122 -17.646 -33.882  0.00  0.00    +0.000 HD
BRANCH  20  22
ATOM     22  C   UNL     1      39.356 -17.406 -35.072  0.00  0.00    +0.058 A 
ATOM     23  C   UNL     1      39.512 -17.569 -36.463  0.00  0.00    -0.003 A 
ATOM     24  C   UNL     1      38.400 -18.005 -37.185  0.00  0.00    +0.047 A 
ATOM     25  N   UNL     1      37.218 -18.329 -36.604  0.00  0.00    -0.251 NA
ATOM     26  C   UNL     1      37.082 -18.209 -35.279  0.00  0.00    +0.074 A 
ATOM     27  C   UNL     1      35.868 -18.567 -34.709  0.00  0.00    -0.017 A 
ATOM     28  C   UNL     1      35.653 -18.460 -33.337  0.00  0.00    +0.043 A 
ATOM     29 CL   UNL     1      34.134 -18.908 -32.665  0.00  0.00    -0.083 Cl
ATOM     30  C   UNL     1      36.652 -17.973 -32.507  0.00  0.00    -0.043 A 
ATOM     31  C   UNL     1      37.873 -17.603 -33.064  0.00  0.00    -0.049 A 
ATOM     32  C   UNL     1      38.118 -17.736 -34.454  0.00  0.00    +0.023 A 
ATOM     33  C   UNL     1      38.455 -18.221 -38.678  0.00  0.00    -0.010 C 
ATOM     34  C   UNL     1      39.603 -17.477 -39.351  0.00  0.00    -0.047 C 
ATOM     35  C   UNL     1      40.898 -17.748 -38.600  0.00  0.00    -0.049 C 
ATOM     36  C   UNL     1      40.806 -17.232 -37.165  0.00  0.00    -0.024 C 
ENDBRANCH  20  22
ENDBRANCH  18  20
ENDBRANCH  15  16
ENDBRANCH  14  15
ENDBRANCH  13  14
ENDBRANCH  12  13
ENDBRANCH  11  12
ENDBRANCH   9  11
ENDBRANCH   4   7
BRANCH   1  37
ATOM     37  O   UNL     1      44.658 -19.483 -38.773  0.00  0.00    -0.490 OA
BRANCH  37  38
ATOM     38  C   UNL     1      45.053 -20.846 -38.972  0.00  0.00    +0.076 C 
BRANCH  38  39
ATOM     39  C   UNL     1      46.520 -21.071 -39.970  0.00  0.00    -0.053 C 
BRANCH  39  40
ATOM     40  N   UNL     1      46.514 -21.449 -40.896  0.00  0.00    +0.382 N 
BRANCH  40  42
ATOM     41  C   UNL     1      47.682 -19.521 -41.822  0.00  0.00    -0.080 C 
ATOM     42  C   UNL     1      46.418 -20.527 -41.272  0.00  0.00    -0.091 C 
ENDBRANCH  40  42
BRANCH  40  43
ATOM     43  C   UNL     1      46.508 -21.826 -41.822  0.00  0.00    -0.091 C 
ATOM     44  C   UNL     1      45.066 -22.145 -42.657  0.00  0.00    -0.080 C 
ENDBRANCH  40  43
BRANCH  40  45
ATOM     45  C   UNL     1      46.609 -22.371 -40.521  0.00  0.00    -0.091 C 
ATOM     46  C   UNL     1      48.244 -23.018 -40.566  0.00  0.00    -0.080 C 
ENDBRANCH  40  45
ENDBRANCH  39  40
ENDBRANCH  38  39
ENDBRANCH  37  38
ENDBRANCH   1  37
BRANCH   6  47
ATOM     47  O   UNL     1      46.955 -18.205 -37.804  0.00  0.00    -0.490 OA
BRANCH  47  48
ATOM     48  C   UNL     1      47.042 -17.259 -38.893  0.00  0.00    +0.076 C 
BRANCH  48  49
ATOM     49  C   UNL     1      47.222 -15.761 -38.459  0.00  0.00    -0.053 C 
BRANCH  49  50
ATOM     50  N   UNL     1      45.752 -14.662 -38.863  0.00  0.00    +0.382 N 
BRANCH  50  51
ATOM     51  C   UNL     1      45.628 -14.540 -37.878  0.00  0.00    -0.091 C 
ATOM     52  C   UNL     1      45.529 -13.339 -36.847  0.00  0.00    -0.080 C 
ENDBRANCH  50  51
BRANCH  50  53
ATOM     53  C   UNL     1      44.144 -15.588 -38.999  0.00  0.00    -0.091 C 
ATOM     54  C   UNL     1      44.085 -16.346 -40.338  0.00  0.00    -0.080 C 
ENDBRANCH  50  53
BRANCH  50  55
ATOM     55  C   UNL     1      45.875 -14.785 -39.847  0.00  0.00    -0.091 C 
ATOM     56  C   UNL     1      46.313 -13.907 -41.084  0.00  0.00    -0.080 C 
ENDBRANCH  50  55
ENDBRANCH  49  50
ENDBRANCH  48  49
ENDBRANCH  47  48
ENDBRANCH   6  47
BRANCH   3  57
ATOM     57  O   UNL     1      42.845 -18.953 -34.255  0.00  0.00    -0.493 OA
BRANCH  57  58
ATOM     58  C   UNL     1      42.660 -20.242 -33.700  0.00  0.00    +0.075 C 
BRANCH  58  59
ATOM     59  C   UNL     1      41.379 -20.331 -32.810  0.00  0.00    -0.053 C 
BRANCH  59  60
ATOM     60  N   UNL     1      40.170 -21.658 -33.349  0.00  0.00    +0.382 N 
BRANCH  60  61
ATOM     61  C   UNL     1      39.994 -21.140 -34.186  0.00  0.00    -0.091 C 
ATOM     62  C   UNL     1      39.923 -21.965 -35.513  0.00  0.00    -0.080 C 
ENDBRANCH  60  61
BRANCH  60  63
ATOM     63  C   UNL     1      38.563 -20.970 -32.660  0.00  0.00    -0.091 C 
ATOM     64  C   UNL     1      37.352 -21.882 -32.859  0.00  0.00    -0.080 C 
ENDBRANCH  60  63
BRANCH  60  65
ATOM     65  C   UNL     1      40.347 -22.176 -32.513  0.00  0.00    -0.091 C 
ATOM     66  C   UNL     1      40.839 -23.646 -32.789  0.00  0.00    -0.080 C 
ENDBRANCH  60  65
ENDBRANCH  59  60
ENDBRANCH  58  59
ENDBRANCH  57  58
ENDBRANCH   3  57
TORSDOF 30
ENDMDL
MODEL 13
REMARK VINA RESULT:    -6.298      2.745      9.393
REMARK INTER + INTRA:          -6.150
REMARK INTER:                 -14.012
REMARK INTRA:                   7.862
REMARK UNBOUND:                 8.064
REMARK  Name = cpd109.pdb
REMARK  39 active torsions:
REMARK  status: ('A' for Active; 'I' for Inactive)
REMARK    1  A    between atoms: C_1  and  C_2
REMARK    2  A    between atoms: C_2  and  N_3
REMARK    3  A    between atoms: N_3  and  C_4
REMARK    4  A    between atoms: N_3  and  C_6
REMARK    5  A    between atoms: N_3  and  C_8
REMARK    6  A    between atoms: C_4  and  C_5
REMARK    7  A    between atoms: C_6  and  C_7
REMARK    8  A    between atoms: C_8  and  C_9
REMARK    9  A    between atoms: C_9  and  O_10
REMARK   10  A    between atoms: O_10  and  C_11
REMARK   11  A    between atoms: C_13  and  O_14
REMARK   12  A    between atoms: O_14  and  C_15
REMARK   13  A    between atoms: C_15  and  C_16
REMARK   14  A    between atoms: C_16  and  N_17
REMARK   15  A    between atoms: N_17  and  C_18
REMARK   16  A    between atoms: N_17  and  C_20
REMARK   17  A    between atoms: N_17  and  C_22
REMARK   18  A    between atoms: C_18  and  C_19
REMARK   19  A    between atoms: C_20  and  C_21
REMARK   20  A    between atoms: C_22  and  C_23
REMARK   21  A    between atoms: C_24  and  C_25
REMARK   22  A    between atoms: N_27  and  C_28
REMARK   23  A    between atoms: C_28  and  C_29
REMARK   24  A    between atoms: C_29  and  C_30
REMARK   25  A    between atoms: C_30  and  C_31
REMARK   26  A    between atoms: C_31  and  C_32
REMARK   27  A    between atoms: C_32  and  C_33
REMARK   28  A    between atoms: N_35  and  N_36
REMARK   29  A    between atoms: N_36  and  C_37
REMARK   30  A    between atoms: C_53  and  O_54
REMARK   31  A    between atoms: O_54  and  C_55
REMARK   32  A    between atoms: C_55  and  C_56
REMARK   33  A    between atoms: C_56  and  N_57
REMARK   34  A    between atoms: N_57  and  C_58
REMARK   35  A    between atoms: N_57  and  C_60
REMARK   36  A    between atoms: N_57  and  C_62
REMARK   37  A    between atoms: C_58  and  C_59
REMARK   38  A    between atoms: C_60  and  C_61
REMARK   39  A    between atoms: C_62  and  C_63
REMARK                            x       y       z     vdW  Elec       q    Type
REMARK                         _______ _______ _______ _____ _____    ______ ____
ROOT
ATOM      1  C   UNL     1      41.597 -17.724 -33.535  0.00  0.00    +0.165 A 
ATOM      2  C   UNL     1      42.449 -17.493 -34.621  0.00  0.00    +0.026 A 
ATOM      3  C   UNL     1      43.101 -16.257 -34.772  0.00  0.00    +0.136 A 
ATOM      4  C   UNL     1      42.921 -15.259 -33.790  0.00  0.00    +0.082 A 
ATOM      5  C   UNL     1      42.013 -15.459 -32.746  0.00  0.00    -0.001 A 
ATOM      6  C   UNL     1      41.283 -16.654 -32.686  0.00  0.00    +0.163 A 
ENDROOT
BRANCH   4   7
ATOM      7  C   UNL     1      43.636 -13.961 -33.949  0.00  0.00    +0.248 C 
ATOM      8  O   UNL     1      44.524 -13.656 -33.162  0.00  0.00    -0.270 OA
ATOM      9  N   UNL     1      43.310 -13.231 -35.074  0.00  0.00    -0.311 N 
ATOM     10  H   UNL     1      42.428 -13.345 -35.495  0.00  0.00    +0.000 HD
BRANCH   9  11
ATOM     11  C   UNL     1      44.267 -12.294 -35.637  0.00  0.00    +0.012 C 
BRANCH  11  12
ATOM     12  C   UNL     1      45.052 -12.833 -36.829  0.00  0.00    -0.037 C 
BRANCH  12  13
ATOM     13  C   UNL     1      46.434 -13.294 -36.358  0.00  0.00    -0.051 C 
BRANCH  13  14
ATOM     14  C   UNL     1      47.527 -13.088 -37.410  0.00  0.00    -0.045 C 
BRANCH  14  15
ATOM     15  C   UNL     1      48.046 -14.423 -37.955  0.00  0.00    +0.025 C 
BRANCH  15  16
ATOM     16  C   UNL     1      47.640 -14.620 -39.403  0.00  0.00    +0.229 C 
ATOM     17  O   UNL     1      47.524 -13.677 -40.183  0.00  0.00    -0.274 OA
ATOM     18  N   UNL     1      47.346 -15.936 -39.712  0.00  0.00    -0.236 N 
ATOM     19  H   UNL     1      47.654 -16.679 -39.143  0.00  0.00    +0.000 HD
BRANCH  18  20
ATOM     20  N   UNL     1      46.583 -16.168 -40.882  0.00  0.00    -0.264 N 
ATOM     21  H   UNL     1      46.725 -15.707 -41.740  0.00  0.00    +0.000 HD
BRANCH  20  22
ATOM     22  C   UNL     1      45.581 -17.157 -40.655  0.00  0.00    +0.058 A 
ATOM     23  C   UNL     1      44.311 -16.794 -40.165  0.00  0.00    -0.003 A 
ATOM     24  C   UNL     1      43.364 -17.811 -40.023  0.00  0.00    +0.047 A 
ATOM     25  N   UNL     1      43.596 -19.096 -40.390  0.00  0.00    -0.251 NA
ATOM     26  C   UNL     1      44.790 -19.433 -40.889  0.00  0.00    +0.074 A 
ATOM     27  C   UNL     1      44.991 -20.751 -41.274  0.00  0.00    -0.017 A 
ATOM     28  C   UNL     1      46.212 -21.174 -41.794  0.00  0.00    +0.043 A 
ATOM     29 CL   UNL     1      46.429 -22.817 -42.257  0.00  0.00    -0.083 Cl
ATOM     30  C   UNL     1      47.266 -20.282 -41.923  0.00  0.00    -0.043 A 
ATOM     31  C   UNL     1      47.082 -18.957 -41.535  0.00  0.00    -0.049 A 
ATOM     32  C   UNL     1      45.836 -18.505 -41.034  0.00  0.00    +0.023 A 
ATOM     33  C   UNL     1      41.970 -17.535 -39.515  0.00  0.00    -0.010 C 
ATOM     34  C   UNL     1      41.862 -16.229 -38.737  0.00  0.00    -0.047 C 
ATOM     35  C   UNL     1      42.504 -15.103 -39.533  0.00  0.00    -0.049 C 
ATOM     36  C   UNL     1      43.991 -15.378 -39.749  0.00  0.00    -0.024 C 
ENDBRANCH  20  22
ENDBRANCH  18  20
ENDBRANCH  15  16
ENDBRANCH  14  15
ENDBRANCH  13  14
ENDBRANCH  12  13
ENDBRANCH  11  12
ENDBRANCH   9  11
ENDBRANCH   4   7
BRANCH   1  37
ATOM     37  O   UNL     1      40.947 -18.906 -33.319  0.00  0.00    -0.490 OA
BRANCH  37  38
ATOM     38  C   UNL     1      41.387 -20.077 -34.018  0.00  0.00    +0.076 C 
BRANCH  38  39
ATOM     39  C   UNL     1      40.512 -20.423 -35.539  0.00  0.00    -0.053 C 
BRANCH  39  40
ATOM     40  N   UNL     1      40.945 -20.794 -36.361  0.00  0.00    +0.382 N 
BRANCH  40  42
ATOM     41  C   UNL     1      39.800 -22.906 -35.954  0.00  0.00    -0.080 C 
ATOM     42  C   UNL     1      41.000 -21.693 -35.927  0.00  0.00    -0.091 C 
ENDBRANCH  40  42
BRANCH  40  43
ATOM     43  C   UNL     1      41.377 -21.164 -37.184  0.00  0.00    -0.091 C 
ATOM     44  C   UNL     1      43.035 -20.983 -37.491  0.00  0.00    -0.080 C 
ENDBRANCH  40  43
BRANCH  40  45
ATOM     45  C   UNL     1      40.889 -19.895 -36.796  0.00  0.00    -0.091 C 
ATOM     46  C   UNL     1      39.496 -19.668 -37.844  0.00  0.00    -0.080 C 
ENDBRANCH  40  45
ENDBRANCH  39  40
ENDBRANCH  38  39
ENDBRANCH  37  38
ENDBRANCH   1  37
BRANCH   6  47
ATOM     47  O   UNL     1      40.222 -16.652 -31.822  0.00  0.00    -0.490 OA
BRANCH  47  48
ATOM     48  C   UNL     1      39.071 -15.862 -32.195  0.00  0.00    +0.076 C 
BRANCH  48  49
ATOM     49  C   UNL     1      38.234 -16.433 -33.394  0.00  0.00    -0.053 C 
BRANCH  49  50
ATOM     50  N   UNL     1      36.817 -17.554 -32.877  0.00  0.00    +0.382 N 
BRANCH  50  51
ATOM     51  C   UNL     1      37.368 -18.325 -33.195  0.00  0.00    -0.091 C 
ATOM     52  C   UNL     1      37.782 -19.765 -32.677  0.00  0.00    -0.080 C 
ENDBRANCH  50  51
BRANCH  50  53
ATOM     53  C   UNL     1      35.560 -17.835 -34.220  0.00  0.00    -0.091 C 
ATOM     54  C   UNL     1      35.383 -16.553 -35.052  0.00  0.00    -0.080 C 
ENDBRANCH  50  53
BRANCH  50  55
ATOM     55  C   UNL     1      36.265 -16.782 -32.560  0.00  0.00    -0.091 C 
ATOM     56  C   UNL     1      35.548 -16.334 -31.227  0.00  0.00    -0.080 C 
ENDBRANCH  50  55
ENDBRANCH  49  50
ENDBRANCH  48  49
ENDBRANCH  47  48
ENDBRANCH   6  47
BRANCH   3  57
ATOM     57  O   UNL     1      43.871 -15.895 -35.844  0.00  0.00    -0.493 OA
BRANCH  57  58
ATOM     58  C   UNL     1      44.767 -16.766 -36.509  0.00  0.00    +0.075 C 
BRANCH  58  59
ATOM     59  C   UNL     1      46.081 -17.003 -35.697  0.00  0.00    -0.053 C 
BRANCH  59  60
ATOM     60  N   UNL     1      46.670 -18.782 -35.709  0.00  0.00    +0.382 N 
BRANCH  60  61
ATOM     61  C   UNL     1      47.615 -18.456 -35.711  0.00  0.00    -0.091 C 
ATOM     62  C   UNL     1      48.622 -19.238 -34.805  0.00  0.00    -0.080 C 
ENDBRANCH  60  61
BRANCH  60  63
ATOM     63  C   UNL     1      46.838 -19.084 -37.557  0.00  0.00    -0.091 C 
ATOM     64  C   UNL     1      46.771 -20.557 -37.963  0.00  0.00    -0.080 C 
ENDBRANCH  60  63
BRANCH  60  65
ATOM     65  C   UNL     1      45.725 -19.109 -35.708  0.00  0.00    -0.091 C 
ATOM     66  C   UNL     1      45.424 -20.124 -34.543  0.00  0.00    -0.080 C 
ENDBRANCH  60  65
ENDBRANCH  59  60
ENDBRANCH  58  59
ENDBRANCH  57  58
ENDBRANCH   3  57
TORSDOF 30
ENDMDL
MODEL 14
REMARK VINA RESULT:    -6.290      2.528      6.559
REMARK INTER + INTRA:          -6.132
REMARK INTER:                 -15.221
REMARK INTRA:                   9.089
REMARK UNBOUND:                 8.064
REMARK  Name = cpd109.pdb
REMARK  39 active torsions:
REMARK  status: ('A' for Active; 'I' for Inactive)
REMARK    1  A    between atoms: C_1  and  C_2
REMARK    2  A    between atoms: C_2  and  N_3
REMARK    3  A    between atoms: N_3  and  C_4
REMARK    4  A    between atoms: N_3  and  C_6
REMARK    5  A    between atoms: N_3  and  C_8
REMARK    6  A    between atoms: C_4  and  C_5
REMARK    7  A    between atoms: C_6  and  C_7
REMARK    8  A    between atoms: C_8  and  C_9
REMARK    9  A    between atoms: C_9  and  O_10
REMARK   10  A    between atoms: O_10  and  C_11
REMARK   11  A    between atoms: C_13  and  O_14
REMARK   12  A    between atoms: O_14  and  C_15
REMARK   13  A    between atoms: C_15  and  C_16
REMARK   14  A    between atoms: C_16  and  N_17
REMARK   15  A    between atoms: N_17  and  C_18
REMARK   16  A    between atoms: N_17  and  C_20
REMARK   17  A    between atoms: N_17  and  C_22
REMARK   18  A    between atoms: C_18  and  C_19
REMARK   19  A    between atoms: C_20  and  C_21
REMARK   20  A    between atoms: C_22  and  C_23
REMARK   21  A    between atoms: C_24  and  C_25
REMARK   22  A    between atoms: N_27  and  C_28
REMARK   23  A    between atoms: C_28  and  C_29
REMARK   24  A    between atoms: C_29  and  C_30
REMARK   25  A    between atoms: C_30  and  C_31
REMARK   26  A    between atoms: C_31  and  C_32
REMARK   27  A    between atoms: C_32  and  C_33
REMARK   28  A    between atoms: N_35  and  N_36
REMARK   29  A    between atoms: N_36  and  C_37
REMARK   30  A    between atoms: C_53  and  O_54
REMARK   31  A    between atoms: O_54  and  C_55
REMARK   32  A    between atoms: C_55  and  C_56
REMARK   33  A    between atoms: C_56  and  N_57
REMARK   34  A    between atoms: N_57  and  C_58
REMARK   35  A    between atoms: N_57  and  C_60
REMARK   36  A    between atoms: N_57  and  C_62
REMARK   37  A    between atoms: C_58  and  C_59
REMARK   38  A    between atoms: C_60  and  C_61
REMARK   39  A    between atoms: C_62  and  C_63
REMARK                            x       y       z     vdW  Elec       q    Type
REMARK                         _______ _______ _______ _____ _____    ______ ____
ROOT
ATOM      1  C   UNL     1      43.336 -20.161 -37.799  0.00  0.00    +0.165 A 
ATOM      2  C   UNL     1      44.237 -19.121 -37.546  0.00  0.00    +0.026 A 
ATOM      3  C   UNL     1      44.419 -18.631 -36.241  0.00  0.00    +0.136 A 
ATOM      4  C   UNL     1      43.713 -19.230 -35.175  0.00  0.00    +0.082 A 
ATOM      5  C   UNL     1      42.757 -20.217 -35.436  0.00  0.00    -0.001 A 
ATOM      6  C   UNL     1      42.506 -20.601 -36.760  0.00  0.00    +0.163 A 
ENDROOT
BRANCH   4   7
ATOM      7  C   UNL     1      43.932 -18.717 -33.793  0.00  0.00    +0.248 C 
ATOM      8  O   UNL     1      44.665 -19.332 -33.027  0.00  0.00    -0.270 OA
ATOM      9  N   UNL     1      43.367 -17.491 -33.511  0.00  0.00    -0.311 N 
ATOM     10  H   UNL     1      42.576 -17.187 -34.014  0.00  0.00    +0.000 HD
BRANCH   9  11
ATOM     11  C   UNL     1      43.936 -16.646 -32.476  0.00  0.00    +0.012 C 
BRANCH  11  12
ATOM     12  C   UNL     1      44.331 -15.249 -32.945  0.00  0.00    -0.037 C 
BRANCH  12  13
ATOM     13  C   UNL     1      43.487 -14.870 -34.166  0.00  0.00    -0.051 C 
BRANCH  13  14
ATOM     14  C   UNL     1      42.304 -13.962 -33.819  0.00  0.00    -0.045 C 
BRANCH  14  15
ATOM     15  C   UNL     1      40.965 -14.610 -34.189  0.00  0.00    +0.025 C 
BRANCH  15  16
ATOM     16  C   UNL     1      40.351 -15.319 -32.997  0.00  0.00    +0.229 C 
ATOM     17  O   UNL     1      40.301 -14.802 -31.884  0.00  0.00    -0.274 OA
ATOM     18  N   UNL     1      39.940 -16.609 -33.284  0.00  0.00    -0.236 N 
ATOM     19  H   UNL     1      39.793 -16.908 -34.211  0.00  0.00    +0.000 HD
BRANCH  18  20
ATOM     20  N   UNL     1      39.740 -17.480 -32.187  0.00  0.00    -0.264 N 
ATOM     21  H   UNL     1      40.161 -17.369 -31.304  0.00  0.00    +0.000 HD
BRANCH  20  22
ATOM     22  C   UNL     1      38.848 -18.540 -32.526  0.00  0.00    +0.058 A 
ATOM     23  C   UNL     1      39.320 -19.861 -32.662  0.00  0.00    -0.003 A 
ATOM     24  C   UNL     1      38.377 -20.852 -32.940  0.00  0.00    +0.047 A 
ATOM     25  N   UNL     1      37.046 -20.608 -33.021  0.00  0.00    -0.251 NA
ATOM     26  C   UNL     1      36.595 -19.360 -32.857  0.00  0.00    +0.074 A 
ATOM     27  C   UNL     1      35.226 -19.143 -32.925  0.00  0.00    -0.017 A 
ATOM     28  C   UNL     1      34.686 -17.868 -32.771  0.00  0.00    +0.043 A 
ATOM     29 CL   UNL     1      32.984 -17.635 -32.867  0.00  0.00    -0.083 Cl
ATOM     30  C   UNL     1      35.516 -16.777 -32.560  0.00  0.00    -0.043 A 
ATOM     31  C   UNL     1      36.892 -16.977 -32.496  0.00  0.00    -0.049 A 
ATOM     32  C   UNL     1      37.454 -18.272 -32.619  0.00  0.00    +0.023 A 
ATOM     33  C   UNL     1      38.770 -22.301 -33.098  0.00  0.00    -0.010 C 
ATOM     34  C   UNL     1      40.248 -22.492 -33.418  0.00  0.00    -0.047 C 
ATOM     35  C   UNL     1      41.091 -21.687 -32.441  0.00  0.00    -0.049 C 
ATOM     36  C   UNL     1      40.791 -20.195 -32.573  0.00  0.00    -0.024 C 
ENDBRANCH  20  22
ENDBRANCH  18  20
ENDBRANCH  15  16
ENDBRANCH  14  15
ENDBRANCH  13  14
ENDBRANCH  12  13
ENDBRANCH  11  12
ENDBRANCH   9  11
ENDBRANCH   4   7
BRANCH   1  37
ATOM     37  O   UNL     1      43.123 -20.694 -39.039  0.00  0.00    -0.490 OA
BRANCH  37  38
ATOM     38  C   UNL     1      44.020 -20.354 -40.104  0.00  0.00    +0.076 C 
BRANCH  38  39
ATOM     39  C   UNL     1      45.387 -21.484 -40.332  0.00  0.00    -0.053 C 
BRANCH  39  40
ATOM     40  N   UNL     1      46.140 -21.330 -40.972  0.00  0.00    +0.382 N 
BRANCH  40  42
ATOM     41  C   UNL     1      44.824 -22.024 -42.902  0.00  0.00    -0.080 C 
ATOM     42  C   UNL     1      45.828 -22.103 -41.524  0.00  0.00    -0.091 C 
ENDBRANCH  40  42
BRANCH  40  43
ATOM     43  C   UNL     1      46.892 -21.177 -41.612  0.00  0.00    -0.091 C 
ATOM     44  C   UNL     1      48.168 -22.281 -41.786  0.00  0.00    -0.080 C 
ENDBRANCH  40  43
BRANCH  40  45
ATOM     45  C   UNL     1      46.451 -20.557 -40.419  0.00  0.00    -0.091 C 
ATOM     46  C   UNL     1      47.119 -20.994 -38.852  0.00  0.00    -0.080 C 
ENDBRANCH  40  45
ENDBRANCH  39  40
ENDBRANCH  38  39
ENDBRANCH  37  38
ENDBRANCH   1  37
BRANCH   6  47
ATOM     47  O   UNL     1      41.372 -21.342 -36.951  0.00  0.00    -0.490 OA
BRANCH  47  48
ATOM     48  C   UNL     1      40.110 -20.643 -36.889  0.00  0.00    +0.076 C 
BRANCH  48  49
ATOM     49  C   UNL     1      39.775 -19.765 -38.147  0.00  0.00    -0.053 C 
BRANCH  49  50
ATOM     50  N   UNL     1      39.137 -18.045 -37.737  0.00  0.00    +0.382 N 
BRANCH  50  51
ATOM     51  C   UNL     1      39.954 -17.923 -37.173  0.00  0.00    -0.091 C 
ATOM     52  C   UNL     1      41.184 -16.927 -37.087  0.00  0.00    -0.080 C 
ENDBRANCH  50  51
BRANCH  50  53
ATOM     53  C   UNL     1      38.036 -17.996 -36.238  0.00  0.00    -0.091 C 
ATOM     54  C   UNL     1      37.505 -16.568 -36.021  0.00  0.00    -0.080 C 
ENDBRANCH  50  53
BRANCH  50  55
ATOM     55  C   UNL     1      38.320 -18.166 -38.300  0.00  0.00    -0.091 C 
ATOM     56  C   UNL     1      37.705 -17.536 -39.610  0.00  0.00    -0.080 C 
ENDBRANCH  50  55
ENDBRANCH  49  50
ENDBRANCH  48  49
ENDBRANCH  47  48
ENDBRANCH   6  47
BRANCH   3  57
ATOM     57  O   UNL     1      45.196 -17.556 -35.901  0.00  0.00    -0.493 OA
BRANCH  57  58
ATOM     58  C   UNL     1      46.601 -17.507 -36.068  0.00  0.00    +0.075 C 
BRANCH  58  59
ATOM     59  C   UNL     1      47.016 -17.272 -37.556  0.00  0.00    -0.053 C 
BRANCH  59  60
ATOM     60  N   UNL     1      46.622 -15.553 -38.192  0.00  0.00    +0.382 N 
BRANCH  60  61
ATOM     61  C   UNL     1      45.865 -15.937 -38.721  0.00  0.00    -0.091 C 
ATOM     62  C   UNL     1      44.465 -15.271 -38.514  0.00  0.00    -0.080 C 
ENDBRANCH  60  61
BRANCH  60  63
ATOM     63  C   UNL     1      47.632 -15.526 -39.777  0.00  0.00    -0.091 C 
ATOM     64  C   UNL     1      47.412 -16.737 -40.684  0.00  0.00    -0.080 C 
ENDBRANCH  60  63
BRANCH  60  65
ATOM     65  C   UNL     1      47.380 -15.170 -37.663  0.00  0.00    -0.091 C 
ATOM     66  C   UNL     1      46.976 -13.886 -36.848  0.00  0.00    -0.080 C 
ENDBRANCH  60  65
ENDBRANCH  59  60
ENDBRANCH  58  59
ENDBRANCH  57  58
ENDBRANCH   3  57
TORSDOF 30
ENDMDL
MODEL 15
REMARK VINA RESULT:    -6.263      2.264      6.421
REMARK INTER + INTRA:          -6.071
REMARK INTER:                 -14.693
REMARK INTRA:                   8.622
REMARK UNBOUND:                 8.064
REMARK  Name = cpd109.pdb
REMARK  39 active torsions:
REMARK  status: ('A' for Active; 'I' for Inactive)
REMARK    1  A    between atoms: C_1  and  C_2
REMARK    2  A    between atoms: C_2  and  N_3
REMARK    3  A    between atoms: N_3  and  C_4
REMARK    4  A    between atoms: N_3  and  C_6
REMARK    5  A    between atoms: N_3  and  C_8
REMARK    6  A    between atoms: C_4  and  C_5
REMARK    7  A    between atoms: C_6  and  C_7
REMARK    8  A    between atoms: C_8  and  C_9
REMARK    9  A    between atoms: C_9  and  O_10
REMARK   10  A    between atoms: O_10  and  C_11
REMARK   11  A    between atoms: C_13  and  O_14
REMARK   12  A    between atoms: O_14  and  C_15
REMARK   13  A    between atoms: C_15  and  C_16
REMARK   14  A    between atoms: C_16  and  N_17
REMARK   15  A    between atoms: N_17  and  C_18
REMARK   16  A    between atoms: N_17  and  C_20
REMARK   17  A    between atoms: N_17  and  C_22
REMARK   18  A    between atoms: C_18  and  C_19
REMARK   19  A    between atoms: C_20  and  C_21
REMARK   20  A    between atoms: C_22  and  C_23
REMARK   21  A    between atoms: C_24  and  C_25
REMARK   22  A    between atoms: N_27  and  C_28
REMARK   23  A    between atoms: C_28  and  C_29
REMARK   24  A    between atoms: C_29  and  C_30
REMARK   25  A    between atoms: C_30  and  C_31
REMARK   26  A    between atoms: C_31  and  C_32
REMARK   27  A    between atoms: C_32  and  C_33
REMARK   28  A    between atoms: N_35  and  N_36
REMARK   29  A    between atoms: N_36  and  C_37
REMARK   30  A    between atoms: C_53  and  O_54
REMARK   31  A    between atoms: O_54  and  C_55
REMARK   32  A    between atoms: C_55  and  C_56
REMARK   33  A    between atoms: C_56  and  N_57
REMARK   34  A    between atoms: N_57  and  C_58
REMARK   35  A    between atoms: N_57  and  C_60
REMARK   36  A    between atoms: N_57  and  C_62
REMARK   37  A    between atoms: C_58  and  C_59
REMARK   38  A    between atoms: C_60  and  C_61
REMARK   39  A    between atoms: C_62  and  C_63
REMARK                            x       y       z     vdW  Elec       q    Type
REMARK                         _______ _______ _______ _____ _____    ______ ____
ROOT
ATOM      1  C   UNL     1      46.402 -16.039 -36.939  0.00  0.00    +0.165 A 
ATOM      2  C   UNL     1      46.638 -17.379 -37.268  0.00  0.00    +0.026 A 
ATOM      3  C   UNL     1      45.583 -18.308 -37.294  0.00  0.00    +0.136 A 
ATOM      4  C   UNL     1      44.269 -17.866 -37.027  0.00  0.00    +0.082 A 
ATOM      5  C   UNL     1      44.042 -16.546 -36.625  0.00  0.00    -0.001 A 
ATOM      6  C   UNL     1      45.128 -15.671 -36.486  0.00  0.00    +0.163 A 
ENDROOT
BRANCH   4   7
ATOM      7  C   UNL     1      43.156 -18.855 -37.081  0.00  0.00    +0.248 C 
ATOM      8  O   UNL     1      42.762 -19.381 -36.047  0.00  0.00    -0.270 OA
ATOM      9  N   UNL     1      42.560 -19.022 -38.314  0.00  0.00    -0.311 N 
ATOM     10  H   UNL     1      43.068 -18.830 -39.135  0.00  0.00    +0.000 HD
BRANCH   9  11
ATOM     11  C   UNL     1      41.184 -19.480 -38.403  0.00  0.00    +0.012 C 
BRANCH  11  12
ATOM     12  C   UNL     1      41.023 -20.892 -38.958  0.00  0.00    -0.037 C 
BRANCH  12  13
ATOM     13  C   UNL     1      40.015 -21.660 -38.098  0.00  0.00    -0.051 C 
BRANCH  13  14
ATOM     14  C   UNL     1      40.190 -21.409 -36.598  0.00  0.00    -0.045 C 
BRANCH  14  15
ATOM     15  C   UNL     1      41.107 -22.454 -35.953  0.00  0.00    +0.025 C 
BRANCH  15  16
ATOM     16  C   UNL     1      41.111 -22.322 -34.442  0.00  0.00    +0.229 C 
ATOM     17  O   UNL     1      40.339 -22.958 -33.728  0.00  0.00    -0.274 OA
ATOM     18  N   UNL     1      42.003 -21.370 -33.981  0.00  0.00    -0.236 N 
ATOM     19  H   UNL     1      42.745 -21.045 -34.543  0.00  0.00    +0.000 HD
BRANCH  18  20
ATOM     20  N   UNL     1      41.803 -20.883 -32.667  0.00  0.00    -0.264 N 
ATOM     21  H   UNL     1      41.879 -21.431 -31.853  0.00  0.00    +0.000 HD
BRANCH  20  22
ATOM     22  C   UNL     1      41.478 -19.494 -32.676  0.00  0.00    +0.058 A 
ATOM     23  C   UNL     1      42.488 -18.520 -32.807  0.00  0.00    -0.003 A 
ATOM     24  C   UNL     1      42.086 -17.184 -32.866  0.00  0.00    +0.047 A 
ATOM     25  N   UNL     1      40.785 -16.801 -32.863  0.00  0.00    -0.251 NA
ATOM     26  C   UNL     1      39.826 -17.728 -32.776  0.00  0.00    +0.074 A 
ATOM     27  C   UNL     1      38.503 -17.308 -32.796  0.00  0.00    -0.017 A 
ATOM     28  C   UNL     1      37.453 -18.217 -32.700  0.00  0.00    +0.043 A 
ATOM     29 CL   UNL     1      35.825 -17.661 -32.724  0.00  0.00    -0.083 Cl
ATOM     30  C   UNL     1      37.711 -19.574 -32.565  0.00  0.00    -0.043 A 
ATOM     31  C   UNL     1      39.032 -20.011 -32.536  0.00  0.00    -0.049 A 
ATOM     32  C   UNL     1      40.111 -19.100 -32.665  0.00  0.00    +0.023 A 
ATOM     33  C   UNL     1      43.081 -16.060 -33.013  0.00  0.00    -0.010 C 
ATOM     34  C   UNL     1      44.495 -16.451 -32.600  0.00  0.00    -0.047 C 
ATOM     35  C   UNL     1      44.881 -17.760 -33.272  0.00  0.00    -0.049 C 
ATOM     36  C   UNL     1      43.953 -18.888 -32.824  0.00  0.00    -0.024 C 
ENDBRANCH  20  22
ENDBRANCH  18  20
ENDBRANCH  15  16
ENDBRANCH  14  15
ENDBRANCH  13  14
ENDBRANCH  12  13
ENDBRANCH  11  12
ENDBRANCH   9  11
ENDBRANCH   4   7
BRANCH   1  37
ATOM     37  O   UNL     1      47.378 -15.083 -36.910  0.00  0.00    -0.490 OA
BRANCH  37  38
ATOM     38  C   UNL     1      48.231 -14.928 -38.051  0.00  0.00    +0.076 C 
BRANCH  38  39
ATOM     39  C   UNL     1      47.659 -13.751 -39.269  0.00  0.00    -0.053 C 
BRANCH  39  40
ATOM     40  N   UNL     1      46.933 -13.938 -39.931  0.00  0.00    +0.382 N 
BRANCH  40  42
ATOM     41  C   UNL     1      46.360 -11.575 -39.778  0.00  0.00    -0.080 C 
ATOM     42  C   UNL     1      46.352 -13.256 -39.487  0.00  0.00    -0.091 C 
ENDBRANCH  40  42
BRANCH  40  43
ATOM     43  C   UNL     1      46.207 -14.126 -40.593  0.00  0.00    -0.091 C 
ATOM     44  C   UNL     1      45.009 -15.293 -40.311  0.00  0.00    -0.080 C 
ENDBRANCH  40  43
BRANCH  40  45
ATOM     45  C   UNL     1      47.514 -14.620 -40.375  0.00  0.00    -0.091 C 
ATOM     46  C   UNL     1      48.430 -14.022 -41.752  0.00  0.00    -0.080 C 
ENDBRANCH  40  45
ENDBRANCH  39  40
ENDBRANCH  38  39
ENDBRANCH  37  38
ENDBRANCH   1  37
BRANCH   6  47
ATOM     47  O   UNL     1      44.863 -14.508 -35.818  0.00  0.00    -0.490 OA
BRANCH  47  48
ATOM     48  C   UNL     1      43.561 -13.915 -36.018  0.00  0.00    +0.076 C 
BRANCH  48  49
ATOM     49  C   UNL     1      43.365 -13.191 -37.397  0.00  0.00    -0.053 C 
BRANCH  49  50
ATOM     50  N   UNL     1      41.619 -13.305 -38.084  0.00  0.00    +0.382 N 
BRANCH  50  51
ATOM     51  C   UNL     1      41.907 -14.136 -38.559  0.00  0.00    -0.091 C 
ATOM     52  C   UNL     1      41.334 -15.588 -38.837  0.00  0.00    -0.080 C 
ENDBRANCH  50  51
BRANCH  50  53
ATOM     53  C   UNL     1      41.392 -12.404 -39.696  0.00  0.00    -0.091 C 
ATOM     54  C   UNL     1      42.746 -12.258 -40.413  0.00  0.00    -0.080 C 
ENDBRANCH  50  53
BRANCH  50  55
ATOM     55  C   UNL     1      41.331 -12.473 -37.609  0.00  0.00    -0.091 C 
ATOM     56  C   UNL     1      40.189 -12.039 -36.610  0.00  0.00    -0.080 C 
ENDBRANCH  50  55
ENDBRANCH  49  50
ENDBRANCH  48  49
ENDBRANCH  47  48
ENDBRANCH   6  47
BRANCH   3  57
ATOM     57  O   UNL     1      45.719 -19.653 -37.503  0.00  0.00    -0.493 OA
BRANCH  57  58
ATOM     58  C   UNL     1      46.609 -20.226 -38.444  0.00  0.00    +0.075 C 
BRANCH  58  59
ATOM     59  C   UNL     1      45.886 -21.186 -39.442  0.00  0.00    -0.053 C 
BRANCH  59  60
ATOM     60  N   UNL     1      46.184 -20.773 -41.245  0.00  0.00    +0.382 N 
BRANCH  60  61
ATOM     61  C   UNL     1      47.117 -20.495 -41.015  0.00  0.00    -0.091 C 
ATOM     62  C   UNL     1      48.259 -21.097 -41.897  0.00  0.00    -0.080 C 
ENDBRANCH  60  61
BRANCH  60  63
ATOM     63  C   UNL     1      45.716 -18.953 -41.270  0.00  0.00    -0.091 C 
ATOM     64  C   UNL     1      44.241 -18.687 -41.573  0.00  0.00    -0.080 C 
ENDBRANCH  60  63
BRANCH  60  65
ATOM     65  C   UNL     1      45.252 -21.050 -41.476  0.00  0.00    -0.091 C 
ATOM     66  C   UNL     1      45.185 -22.027 -42.708  0.00  0.00    -0.080 C 
ENDBRANCH  60  65
ENDBRANCH  59  60
ENDBRANCH  58  59
ENDBRANCH  57  58
ENDBRANCH   3  57
TORSDOF 30
ENDMDL
MODEL 16
REMARK VINA RESULT:    -6.231      2.142      6.566
REMARK INTER + INTRA:          -5.999
REMARK INTER:                 -13.120
REMARK INTRA:                   7.121
REMARK UNBOUND:                 8.064
REMARK  Name = cpd109.pdb
REMARK  39 active torsions:
REMARK  status: ('A' for Active; 'I' for Inactive)
REMARK    1  A    between atoms: C_1  and  C_2
REMARK    2  A    between atoms: C_2  and  N_3
REMARK    3  A    between atoms: N_3  and  C_4
REMARK    4  A    between atoms: N_3  and  C_6
REMARK    5  A    between atoms: N_3  and  C_8
REMARK    6  A    between atoms: C_4  and  C_5
REMARK    7  A    between atoms: C_6  and  C_7
REMARK    8  A    between atoms: C_8  and  C_9
REMARK    9  A    between atoms: C_9  and  O_10
REMARK   10  A    between atoms: O_10  and  C_11
REMARK   11  A    between atoms: C_13  and  O_14
REMARK   12  A    between atoms: O_14  and  C_15
REMARK   13  A    between atoms: C_15  and  C_16
REMARK   14  A    between atoms: C_16  and  N_17
REMARK   15  A    between atoms: N_17  and  C_18
REMARK   16  A    between atoms: N_17  and  C_20
REMARK   17  A    between atoms: N_17  and  C_22
REMARK   18  A    between atoms: C_18  and  C_19
REMARK   19  A    between atoms: C_20  and  C_21
REMARK   20  A    between atoms: C_22  and  C_23
REMARK   21  A    between atoms: C_24  and  C_25
REMARK   22  A    between atoms: N_27  and  C_28
REMARK   23  A    between atoms: C_28  and  C_29
REMARK   24  A    between atoms: C_29  and  C_30
REMARK   25  A    between atoms: C_30  and  C_31
REMARK   26  A    between atoms: C_31  and  C_32
REMARK   27  A    between atoms: C_32  and  C_33
REMARK   28  A    between atoms: N_35  and  N_36
REMARK   29  A    between atoms: N_36  and  C_37
REMARK   30  A    between atoms: C_53  and  O_54
REMARK   31  A    between atoms: O_54  and  C_55
REMARK   32  A    between atoms: C_55  and  C_56
REMARK   33  A    between atoms: C_56  and  N_57
REMARK   34  A    between atoms: N_57  and  C_58
REMARK   35  A    between atoms: N_57  and  C_60
REMARK   36  A    between atoms: N_57  and  C_62
REMARK   37  A    between atoms: C_58  and  C_59
REMARK   38  A    between atoms: C_60  and  C_61
REMARK   39  A    between atoms: C_62  and  C_63
REMARK                            x       y       z     vdW  Elec       q    Type
REMARK                         _______ _______ _______ _____ _____    ______ ____
ROOT
ATOM      1  C   UNL     1      45.843 -16.817 -40.290  0.00  0.00    +0.165 A 
ATOM      2  C   UNL     1      44.772 -17.096 -39.434  0.00  0.00    +0.026 A 
ATOM      3  C   UNL     1      43.759 -16.146 -39.217  0.00  0.00    +0.136 A 
ATOM      4  C   UNL     1      43.808 -14.916 -39.909  0.00  0.00    +0.082 A 
ATOM      5  C   UNL     1      44.915 -14.605 -40.705  0.00  0.00    -0.001 A 
ATOM      6  C   UNL     1      45.971 -15.520 -40.806  0.00  0.00    +0.163 A 
ENDROOT
BRANCH   4   7
ATOM      7  C   UNL     1      42.717 -13.927 -39.688  0.00  0.00    +0.248 C 
ATOM      8  O   UNL     1      41.909 -13.705 -40.582  0.00  0.00    -0.270 OA
ATOM      9  N   UNL     1      42.628 -13.404 -38.414  0.00  0.00    -0.311 N 
ATOM     10  H   UNL     1      43.428 -13.369 -37.841  0.00  0.00    +0.000 HD
BRANCH   9  11
ATOM     11  C   UNL     1      41.357 -12.908 -37.916  0.00  0.00    +0.012 C 
BRANCH  11  12
ATOM     12  C   UNL     1      40.928 -13.500 -36.577  0.00  0.00    -0.037 C 
BRANCH  12  13
ATOM     13  C   UNL     1      42.034 -13.267 -35.544  0.00  0.00    -0.051 C 
BRANCH  13  14
ATOM     14  C   UNL     1      42.479 -14.552 -34.840  0.00  0.00    -0.045 C 
BRANCH  14  15
ATOM     15  C   UNL     1      43.274 -14.253 -33.565  0.00  0.00    +0.025 C 
BRANCH  15  16
ATOM     16  C   UNL     1      43.513 -15.515 -32.759  0.00  0.00    +0.229 C 
ATOM     17  O   UNL     1      44.290 -15.546 -31.808  0.00  0.00    -0.274 OA
ATOM     18  N   UNL     1      42.835 -16.615 -33.256  0.00  0.00    -0.236 N 
ATOM     19  H   UNL     1      42.068 -16.514 -33.866  0.00  0.00    +0.000 HD
BRANCH  18  20
ATOM     20  N   UNL     1      43.291 -17.891 -32.848  0.00  0.00    -0.264 N 
ATOM     21  H   UNL     1      43.514 -18.132 -31.919  0.00  0.00    +0.000 HD
BRANCH  20  22
ATOM     22  C   UNL     1      43.387 -18.783 -33.956  0.00  0.00    +0.058 A 
ATOM     23  C   UNL     1      44.585 -18.892 -34.690  0.00  0.00    -0.003 A 
ATOM     24  C   UNL     1      44.619 -19.828 -35.726  0.00  0.00    +0.047 A 
ATOM     25  N   UNL     1      43.587 -20.660 -36.007  0.00  0.00    -0.251 NA
ATOM     26  C   UNL     1      42.463 -20.581 -35.287  0.00  0.00    +0.074 A 
ATOM     27  C   UNL     1      41.431 -21.461 -35.584  0.00  0.00    -0.017 A 
ATOM     28  C   UNL     1      40.229 -21.429 -34.881  0.00  0.00    +0.043 A 
ATOM     29 CL   UNL     1      38.968 -22.531 -35.279  0.00  0.00    -0.083 Cl
ATOM     30  C   UNL     1      40.032 -20.500 -33.870  0.00  0.00    -0.043 A 
ATOM     31  C   UNL     1      41.055 -19.607 -33.564  0.00  0.00    -0.049 A 
ATOM     32  C   UNL     1      42.295 -19.647 -34.250  0.00  0.00    +0.023 A 
ATOM     33  C   UNL     1      45.852 -20.034 -36.571  0.00  0.00    -0.010 C 
ATOM     34  C   UNL     1      46.813 -18.851 -36.531  0.00  0.00    -0.047 C 
ATOM     35  C   UNL     1      47.068 -18.447 -35.087  0.00  0.00    -0.049 C 
ATOM     36  C   UNL     1      45.771 -17.997 -34.417  0.00  0.00    -0.024 C 
ENDBRANCH  20  22
ENDBRANCH  18  20
ENDBRANCH  15  16
ENDBRANCH  14  15
ENDBRANCH  13  14
ENDBRANCH  12  13
ENDBRANCH  11  12
ENDBRANCH   9  11
ENDBRANCH   4   7
BRANCH   1  37
ATOM     37  O   UNL     1      46.850 -17.700 -40.558  0.00  0.00    -0.490 OA
BRANCH  37  38
ATOM     38  C   UNL     1      46.571 -18.845 -41.374  0.00  0.00    +0.076 C 
BRANCH  38  39
ATOM     39  C   UNL     1      46.084 -20.313 -40.476  0.00  0.00    -0.053 C 
BRANCH  39  40
ATOM     40  N   UNL     1      45.699 -21.130 -40.906  0.00  0.00    +0.382 N 
BRANCH  40  42
ATOM     41  C   UNL     1      47.433 -21.998 -39.430  0.00  0.00    -0.080 C 
ATOM     42  C   UNL     1      46.592 -21.577 -40.854  0.00  0.00    -0.091 C 
ENDBRANCH  40  42
BRANCH  40  43
ATOM     43  C   UNL     1      45.314 -21.946 -41.335  0.00  0.00    -0.091 C 
ATOM     44  C   UNL     1      45.910 -22.561 -42.800  0.00  0.00    -0.080 C 
ENDBRANCH  40  43
BRANCH  40  45
ATOM     45  C   UNL     1      44.807 -20.682 -40.957  0.00  0.00    -0.091 C 
ATOM     46  C   UNL     1      43.820 -20.837 -39.510  0.00  0.00    -0.080 C 
ENDBRANCH  40  45
ENDBRANCH  39  40
ENDBRANCH  38  39
ENDBRANCH  37  38
ENDBRANCH   1  37
BRANCH   6  47
ATOM     47  O   UNL     1      47.124 -15.028 -41.354  0.00  0.00    -0.490 OA
BRANCH  47  48
ATOM     48  C   UNL     1      47.681 -13.838 -40.755  0.00  0.00    +0.076 C 
BRANCH  48  49
ATOM     49  C   UNL     1      48.121 -13.992 -39.256  0.00  0.00    -0.053 C 
BRANCH  49  50
ATOM     50  N   UNL     1      46.972 -13.153 -38.028  0.00  0.00    +0.382 N 
BRANCH  50  51
ATOM     51  C   UNL     1      46.911 -12.390 -38.672  0.00  0.00    -0.091 C 
ATOM     52  C   UNL     1      45.804 -11.387 -39.202  0.00  0.00    -0.080 C 
ENDBRANCH  50  51
BRANCH  50  53
ATOM     53  C   UNL     1      47.857 -12.094 -36.781  0.00  0.00    -0.091 C 
ATOM     54  C   UNL     1      49.153 -11.532 -37.393  0.00  0.00    -0.080 C 
ENDBRANCH  50  53
BRANCH  50  55
ATOM     55  C   UNL     1      47.033 -13.915 -37.384  0.00  0.00    -0.091 C 
ATOM     56  C   UNL     1      46.054 -14.965 -36.726  0.00  0.00    -0.080 C 
ENDBRANCH  50  55
ENDBRANCH  49  50
ENDBRANCH  48  49
ENDBRANCH  47  48
ENDBRANCH   6  47
BRANCH   3  57
ATOM     57  O   UNL     1      42.728 -16.279 -38.327  0.00  0.00    -0.493 OA
BRANCH  57  58
ATOM     58  C   UNL     1      42.496 -17.437 -37.545  0.00  0.00    +0.075 C 
BRANCH  58  59
ATOM     59  C   UNL     1      41.137 -17.375 -36.777  0.00  0.00    -0.053 C 
BRANCH  59  60
ATOM     60  N   UNL     1      39.678 -18.018 -37.762  0.00  0.00    +0.382 N 
BRANCH  60  61
ATOM     61  C   UNL     1      39.343 -17.080 -37.853  0.00  0.00    -0.091 C 
ATOM     62  C   UNL     1      39.263 -16.508 -39.306  0.00  0.00    -0.080 C 
ENDBRANCH  60  61
BRANCH  60  63
ATOM     63  C   UNL     1      38.415 -18.270 -36.394  0.00  0.00    -0.091 C 
ATOM     64  C   UNL     1      37.003 -18.585 -36.890  0.00  0.00    -0.080 C 
ENDBRANCH  60  63
BRANCH  60  65
ATOM     65  C   UNL     1      40.013 -18.956 -37.671  0.00  0.00    -0.091 C 
ATOM     66  C   UNL     1      39.883 -19.789 -39.000  0.00  0.00    -0.080 C 
ENDBRANCH  60  65
ENDBRANCH  59  60
ENDBRANCH  58  59
ENDBRANCH  57  58
ENDBRANCH   3  57
TORSDOF 30
ENDMDL
MODEL 17
REMARK VINA RESULT:    -6.217      2.716      6.900
REMARK INTER + INTRA:          -5.968
REMARK INTER:                 -14.897
REMARK INTRA:                   8.930
REMARK UNBOUND:                 8.064
REMARK  Name = cpd109.pdb
REMARK  39 active torsions:
REMARK  status: ('A' for Active; 'I' for Inactive)
REMARK    1  A    between atoms: C_1  and  C_2
REMARK    2  A    between atoms: C_2  and  N_3
REMARK    3  A    between atoms: N_3  and  C_4
REMARK    4  A    between atoms: N_3  and  C_6
REMARK    5  A    between atoms: N_3  and  C_8
REMARK    6  A    between atoms: C_4  and  C_5
REMARK    7  A    between atoms: C_6  and  C_7
REMARK    8  A    between atoms: C_8  and  C_9
REMARK    9  A    between atoms: C_9  and  O_10
REMARK   10  A    between atoms: O_10  and  C_11
REMARK   11  A    between atoms: C_13  and  O_14
REMARK   12  A    between atoms: O_14  and  C_15
REMARK   13  A    between atoms: C_15  and  C_16
REMARK   14  A    between atoms: C_16  and  N_17
REMARK   15  A    between atoms: N_17  and  C_18
REMARK   16  A    between atoms: N_17  and  C_20
REMARK   17  A    between atoms: N_17  and  C_22
REMARK   18  A    between atoms: C_18  and  C_19
REMARK   19  A    between atoms: C_20  and  C_21
REMARK   20  A    between atoms: C_22  and  C_23
REMARK   21  A    between atoms: C_24  and  C_25
REMARK   22  A    between atoms: N_27  and  C_28
REMARK   23  A    between atoms: C_28  and  C_29
REMARK   24  A    between atoms: C_29  and  C_30
REMARK   25  A    between atoms: C_30  and  C_31
REMARK   26  A    between atoms: C_31  and  C_32
REMARK   27  A    between atoms: C_32  and  C_33
REMARK   28  A    between atoms: N_35  and  N_36
REMARK   29  A    between atoms: N_36  and  C_37
REMARK   30  A    between atoms: C_53  and  O_54
REMARK   31  A    between atoms: O_54  and  C_55
REMARK   32  A    between atoms: C_55  and  C_56
REMARK   33  A    between atoms: C_56  and  N_57
REMARK   34  A    between atoms: N_57  and  C_58
REMARK   35  A    between atoms: N_57  and  C_60
REMARK   36  A    between atoms: N_57  and  C_62
REMARK   37  A    between atoms: C_58  and  C_59
REMARK   38  A    between atoms: C_60  and  C_61
REMARK   39  A    between atoms: C_62  and  C_63
REMARK                            x       y       z     vdW  Elec       q    Type
REMARK                         _______ _______ _______ _____ _____    ______ ____
ROOT
ATOM      1  C   UNL     1      43.523 -19.537 -37.239  0.00  0.00    +0.165 A 
ATOM      2  C   UNL     1      44.297 -18.383 -37.075  0.00  0.00    +0.026 A 
ATOM      3  C   UNL     1      44.544 -17.860 -35.794  0.00  0.00    +0.136 A 
ATOM      4  C   UNL     1      44.039 -18.539 -34.664  0.00  0.00    +0.082 A 
ATOM      5  C   UNL     1      43.203 -19.647 -34.828  0.00  0.00    -0.001 A 
ATOM      6  C   UNL     1      42.871 -20.074 -36.121  0.00  0.00    +0.163 A 
ENDROOT
BRANCH   4   7
ATOM      7  C   UNL     1      44.328 -17.988 -33.310  0.00  0.00    +0.248 C 
ATOM      8  O   UNL     1      45.227 -18.476 -32.635  0.00  0.00    -0.270 OA
ATOM      9  N   UNL     1      43.614 -16.862 -32.955  0.00  0.00    -0.311 N 
ATOM     10  H   UNL     1      42.735 -16.688 -33.364  0.00  0.00    +0.000 HD
BRANCH   9  11
ATOM     11  C   UNL     1      44.157 -15.931 -31.980  0.00  0.00    +0.012 C 
BRANCH  11  12
ATOM     12  C   UNL     1      44.123 -14.469 -32.415  0.00  0.00    -0.037 C 
BRANCH  12  13
ATOM     13  C   UNL     1      42.890 -13.791 -31.809  0.00  0.00    -0.051 C 
BRANCH  13  14
ATOM     14  C   UNL     1      41.704 -13.730 -32.775  0.00  0.00    -0.045 C 
BRANCH  14  15
ATOM     15  C   UNL     1      40.478 -14.459 -32.214  0.00  0.00    +0.025 C 
BRANCH  15  16
ATOM     16  C   UNL     1      40.358 -15.855 -32.794  0.00  0.00    +0.229 C 
ATOM     17  O   UNL     1      40.600 -16.861 -32.132  0.00  0.00    -0.274 OA
ATOM     18  N   UNL     1      40.031 -15.859 -34.139  0.00  0.00    -0.236 N 
ATOM     19  H   UNL     1      39.636 -15.069 -34.575  0.00  0.00    +0.000 HD
BRANCH  18  20
ATOM     20  N   UNL     1      40.289 -17.049 -34.861  0.00  0.00    -0.264 N 
ATOM     21  H   UNL     1      40.892 -17.766 -34.556  0.00  0.00    +0.000 HD
BRANCH  20  22
ATOM     22  C   UNL     1      39.563 -17.076 -36.087  0.00  0.00    +0.058 A 
ATOM     23  C   UNL     1      38.233 -17.541 -36.126  0.00  0.00    -0.003 A 
ATOM     24  C   UNL     1      37.569 -17.482 -37.352  0.00  0.00    +0.047 A 
ATOM     25  N   UNL     1      38.122 -16.950 -38.470  0.00  0.00    -0.251 NA
ATOM     26  C   UNL     1      39.371 -16.476 -38.424  0.00  0.00    +0.074 A 
ATOM     27  C   UNL     1      39.903 -15.918 -39.579  0.00  0.00    -0.017 A 
ATOM     28  C   UNL     1      41.200 -15.412 -39.606  0.00  0.00    +0.043 A 
ATOM     29 CL   UNL     1      41.830 -14.732 -41.056  0.00  0.00    -0.083 Cl
ATOM     30  C   UNL     1      42.000 -15.471 -38.474  0.00  0.00    -0.043 A 
ATOM     31  C   UNL     1      41.483 -16.033 -37.310  0.00  0.00    -0.049 A 
ATOM     32  C   UNL     1      40.154 -16.523 -37.258  0.00  0.00    +0.023 A 
ATOM     33  C   UNL     1      36.141 -17.946 -37.506  0.00  0.00    -0.010 C 
ATOM     34  C   UNL     1      35.695 -18.896 -36.401  0.00  0.00    -0.047 C 
ATOM     35  C   UNL     1      36.049 -18.305 -35.045  0.00  0.00    -0.049 C 
ATOM     36  C   UNL     1      37.562 -18.137 -34.910  0.00  0.00    -0.024 C 
ENDBRANCH  20  22
ENDBRANCH  18  20
ENDBRANCH  15  16
ENDBRANCH  14  15
ENDBRANCH  13  14
ENDBRANCH  12  13
ENDBRANCH  11  12
ENDBRANCH   9  11
ENDBRANCH   4   7
BRANCH   1  37
ATOM     37  O   UNL     1      43.258 -20.106 -38.452  0.00  0.00    -0.490 OA
BRANCH  37  38
ATOM     38  C   UNL     1      44.203 -21.028 -39.008  0.00  0.00    +0.076 C 
BRANCH  38  39
ATOM     39  C   UNL     1      45.497 -20.284 -39.993  0.00  0.00    -0.053 C 
BRANCH  39  40
ATOM     40  N   UNL     1      45.640 -20.474 -40.965  0.00  0.00    +0.382 N 
BRANCH  40  42
ATOM     41  C   UNL     1      47.136 -22.048 -39.858  0.00  0.00    -0.080 C 
ATOM     42  C   UNL     1      46.592 -20.716 -40.776  0.00  0.00    -0.091 C 
ENDBRANCH  40  42
BRANCH  40  43
ATOM     43  C   UNL     1      45.784 -20.664 -41.936  0.00  0.00    -0.091 C 
ATOM     44  C   UNL     1      45.194 -22.072 -42.676  0.00  0.00    -0.080 C 
ENDBRANCH  40  43
BRANCH  40  45
ATOM     45  C   UNL     1      44.688 -20.232 -41.153  0.00  0.00    -0.091 C 
ATOM     46  C   UNL     1      44.441 -18.572 -41.679  0.00  0.00    -0.080 C 
ENDBRANCH  40  45
ENDBRANCH  39  40
ENDBRANCH  38  39
ENDBRANCH  37  38
ENDBRANCH   1  37
BRANCH   6  47
ATOM     47  O   UNL     1      41.834 -20.963 -36.198  0.00  0.00    -0.490 OA
BRANCH  47  48
ATOM     48  C   UNL     1      40.512 -20.459 -35.904  0.00  0.00    +0.076 C 
BRANCH  48  49
ATOM     49  C   UNL     1      39.453 -21.555 -35.525  0.00  0.00    -0.053 C 
BRANCH  49  50
ATOM     50  N   UNL     1      39.519 -22.098 -33.726  0.00  0.00    +0.382 N 
BRANCH  50  51
ATOM     51  C   UNL     1      39.618 -21.133 -33.484  0.00  0.00    -0.091 C 
ATOM     52  C   UNL     1      39.005 -20.118 -32.431  0.00  0.00    -0.080 C 
ENDBRANCH  50  51
BRANCH  50  53
ATOM     53  C   UNL     1      41.238 -22.476 -33.124  0.00  0.00    -0.091 C 
ATOM     54  C   UNL     1      41.181 -23.064 -31.703  0.00  0.00    -0.080 C 
ENDBRANCH  50  53
BRANCH  50  55
ATOM     55  C   UNL     1      39.420 -23.063 -33.969  0.00  0.00    -0.091 C 
ATOM     56  C   UNL     1      38.329 -24.194 -33.824  0.00  0.00    -0.080 C 
ENDBRANCH  50  55
ENDBRANCH  49  50
ENDBRANCH  48  49
ENDBRANCH  47  48
ENDBRANCH   6  47
BRANCH   3  57
ATOM     57  O   UNL     1      45.200 -16.688 -35.531  0.00  0.00    -0.493 OA
BRANCH  57  58
ATOM     58  C   UNL     1      44.981 -15.479 -36.235  0.00  0.00    +0.075 C 
BRANCH  58  59
ATOM     59  C   UNL     1      46.315 -14.763 -36.621  0.00  0.00    -0.053 C 
BRANCH  59  60
ATOM     60  N   UNL     1      46.799 -14.979 -38.418  0.00  0.00    +0.382 N 
BRANCH  60  61
ATOM     61  C   UNL     1      47.276 -15.824 -38.175  0.00  0.00    -0.091 C 
ATOM     62  C   UNL     1      47.033 -17.053 -39.111  0.00  0.00    -0.080 C 
ENDBRANCH  60  61
BRANCH  60  63
ATOM     63  C   UNL     1      48.469 -14.117 -38.437  0.00  0.00    -0.091 C 
ATOM     64  C   UNL     1      49.129 -14.054 -39.815  0.00  0.00    -0.080 C 
ENDBRANCH  60  63
BRANCH  60  65
ATOM     65  C   UNL     1      46.323 -14.134 -38.661  0.00  0.00    -0.091 C 
ATOM     66  C   UNL     1      45.284 -14.325 -39.829  0.00  0.00    -0.080 C 
ENDBRANCH  60  65
ENDBRANCH  59  60
ENDBRANCH  58  59
ENDBRANCH  57  58
ENDBRANCH   3  57
TORSDOF 30
ENDMDL
MODEL 18
REMARK VINA RESULT:    -6.193      2.876      7.180
REMARK INTER + INTRA:          -5.914
REMARK INTER:                 -13.909
REMARK INTRA:                   7.995
REMARK UNBOUND:                 8.064
REMARK  Name = cpd109.pdb
REMARK  39 active torsions:
REMARK  status: ('A' for Active; 'I' for Inactive)
REMARK    1  A    between atoms: C_1  and  C_2
REMARK    2  A    between atoms: C_2  and  N_3
REMARK    3  A    between atoms: N_3  and  C_4
REMARK    4  A    between atoms: N_3  and  C_6
REMARK    5  A    between atoms: N_3  and  C_8
REMARK    6  A    between atoms: C_4  and  C_5
REMARK    7  A    between atoms: C_6  and  C_7
REMARK    8  A    between atoms: C_8  and  C_9
REMARK    9  A    between atoms: C_9  and  O_10
REMARK   10  A    between atoms: O_10  and  C_11
REMARK   11  A    between atoms: C_13  and  O_14
REMARK   12  A    between atoms: O_14  and  C_15
REMARK   13  A    between atoms: C_15  and  C_16
REMARK   14  A    between atoms: C_16  and  N_17
REMARK   15  A    between atoms: N_17  and  C_18
REMARK   16  A    between atoms: N_17  and  C_20
REMARK   17  A    between atoms: N_17  and  C_22
REMARK   18  A    between atoms: C_18  and  C_19
REMARK   19  A    between atoms: C_20  and  C_21
REMARK   20  A    between atoms: C_22  and  C_23
REMARK   21  A    between atoms: C_24  and  C_25
REMARK   22  A    between atoms: N_27  and  C_28
REMARK   23  A    between atoms: C_28  and  C_29
REMARK   24  A    between atoms: C_29  and  C_30
REMARK   25  A    between atoms: C_30  and  C_31
REMARK   26  A    between atoms: C_31  and  C_32
REMARK   27  A    between atoms: C_32  and  C_33
REMARK   28  A    between atoms: N_35  and  N_36
REMARK   29  A    between atoms: N_36  and  C_37
REMARK   30  A    between atoms: C_53  and  O_54
REMARK   31  A    between atoms: O_54  and  C_55
REMARK   32  A    between atoms: C_55  and  C_56
REMARK   33  A    between atoms: C_56  and  N_57
REMARK   34  A    between atoms: N_57  and  C_58
REMARK   35  A    between atoms: N_57  and  C_60
REMARK   36  A    between atoms: N_57  and  C_62
REMARK   37  A    between atoms: C_58  and  C_59
REMARK   38  A    between atoms: C_60  and  C_61
REMARK   39  A    between atoms: C_62  and  C_63
REMARK                            x       y       z     vdW  Elec       q    Type
REMARK                         _______ _______ _______ _____ _____    ______ ____
ROOT
ATOM      1  C   UNL     1      42.835 -16.116 -35.426  0.00  0.00    +0.165 A 
ATOM      2  C   UNL     1      41.928 -17.004 -36.015  0.00  0.00    +0.026 A 
ATOM      3  C   UNL     1      41.362 -18.053 -35.269  0.00  0.00    +0.136 A 
ATOM      4  C   UNL     1      41.685 -18.175 -33.900  0.00  0.00    +0.082 A 
ATOM      5  C   UNL     1      42.647 -17.337 -33.329  0.00  0.00    -0.001 A 
ATOM      6  C   UNL     1      43.288 -16.379 -34.127  0.00  0.00    +0.163 A 
ENDROOT
BRANCH   4   7
ATOM      7  C   UNL     1      41.060 -19.277 -33.114  0.00  0.00    +0.248 C 
ATOM      8  O   UNL     1      40.107 -19.035 -32.383  0.00  0.00    -0.270 OA
ATOM      9  N   UNL     1      41.546 -20.544 -33.364  0.00  0.00    -0.311 N 
ATOM     10  H   UNL     1      42.463 -20.660 -33.704  0.00  0.00    +0.000 HD
BRANCH   9  11
ATOM     11  C   UNL     1      40.707 -21.706 -33.128  0.00  0.00    +0.012 C 
BRANCH  11  12
ATOM     12  C   UNL     1      39.685 -21.981 -34.227  0.00  0.00    -0.037 C 
BRANCH  12  13
ATOM     13  C   UNL     1      40.263 -23.002 -35.211  0.00  0.00    -0.051 C 
BRANCH  13  14
ATOM     14  C   UNL     1      41.295 -22.397 -36.167  0.00  0.00    -0.045 C 
BRANCH  14  15
ATOM     15  C   UNL     1      40.824 -22.462 -37.623  0.00  0.00    +0.025 C 
BRANCH  15  16
ATOM     16  C   UNL     1      41.194 -21.200 -38.377  0.00  0.00    +0.229 C 
ATOM     17  O   UNL     1      40.654 -20.888 -39.436  0.00  0.00    -0.274 OA
ATOM     18  N   UNL     1      42.237 -20.503 -37.792  0.00  0.00    -0.236 N 
ATOM     19  H   UNL     1      42.494 -20.653 -36.853  0.00  0.00    +0.000 HD
BRANCH  18  20
ATOM     20  N   UNL     1      42.920 -19.565 -38.604  0.00  0.00    -0.264 N 
ATOM     21  H   UNL     1      42.502 -18.771 -39.008  0.00  0.00    +0.000 HD
BRANCH  20  22
ATOM     22  C   UNL     1      44.292 -19.921 -38.759  0.00  0.00    +0.058 A 
ATOM     23  C   UNL     1      44.746 -20.541 -39.940  0.00  0.00    -0.003 A 
ATOM     24  C   UNL     1      46.113 -20.806 -40.041  0.00  0.00    +0.047 A 
ATOM     25  N   UNL     1      47.010 -20.442 -39.091  0.00  0.00    -0.251 NA
ATOM     26  C   UNL     1      46.584 -19.822 -37.986  0.00  0.00    +0.074 A 
ATOM     27  C   UNL     1      47.528 -19.443 -37.042  0.00  0.00    -0.017 A 
ATOM     28  C   UNL     1      47.155 -18.801 -35.864  0.00  0.00    +0.043 A 
ATOM     29 CL   UNL     1      48.351 -18.350 -34.711  0.00  0.00    -0.083 Cl
ATOM     30  C   UNL     1      45.819 -18.538 -35.601  0.00  0.00    -0.043 A 
ATOM     31  C   UNL     1      44.859 -18.917 -36.536  0.00  0.00    -0.049 A 
ATOM     32  C   UNL     1      45.226 -19.543 -37.753  0.00  0.00    +0.023 A 
ATOM     33  C   UNL     1      46.708 -21.459 -41.263  0.00  0.00    -0.010 C 
ATOM     34  C   UNL     1      45.684 -22.218 -42.099  0.00  0.00    -0.047 C 
ATOM     35  C   UNL     1      44.473 -21.333 -42.352  0.00  0.00    -0.049 C 
ATOM     36  C   UNL     1      43.794 -20.961 -41.035  0.00  0.00    -0.024 C 
ENDBRANCH  20  22
ENDBRANCH  18  20
ENDBRANCH  15  16
ENDBRANCH  14  15
ENDBRANCH  13  14
ENDBRANCH  12  13
ENDBRANCH  11  12
ENDBRANCH   9  11
ENDBRANCH   4   7
BRANCH   1  37
ATOM     37  O   UNL     1      43.408 -15.068 -36.089  0.00  0.00    -0.490 OA
BRANCH  37  38
ATOM     38  C   UNL     1      44.540 -15.316 -36.933  0.00  0.00    +0.076 C 
BRANCH  38  39
ATOM     39  C   UNL     1      44.221 -15.172 -38.687  0.00  0.00    -0.053 C 
BRANCH  39  40
ATOM     40  N   UNL     1      44.863 -15.459 -39.398  0.00  0.00    +0.382 N 
BRANCH  40  42
ATOM     41  C   UNL     1      44.825 -13.212 -40.338  0.00  0.00    -0.080 C 
ATOM     42  C   UNL     1      45.283 -14.552 -39.386  0.00  0.00    -0.091 C 
ENDBRANCH  40  42
BRANCH  40  43
ATOM     43  C   UNL     1      45.505 -15.747 -40.109  0.00  0.00    -0.091 C 
ATOM     44  C   UNL     1      46.922 -16.607 -39.750  0.00  0.00    -0.080 C 
ENDBRANCH  40  43
BRANCH  40  45
ATOM     45  C   UNL     1      44.443 -16.367 -39.409  0.00  0.00    -0.091 C 
ATOM     46  C   UNL     1      43.224 -16.598 -40.655  0.00  0.00    -0.080 C 
ENDBRANCH  40  45
ENDBRANCH  39  40
ENDBRANCH  38  39
ENDBRANCH  37  38
ENDBRANCH   1  37
BRANCH   6  47
ATOM     47  O   UNL     1      44.403 -15.810 -33.578  0.00  0.00    -0.490 OA
BRANCH  47  48
ATOM     48  C   UNL     1      44.546 -15.890 -32.142  0.00  0.00    +0.076 C 
BRANCH  48  49
ATOM     49  C   UNL     1      44.617 -14.507 -31.403  0.00  0.00    -0.053 C 
BRANCH  49  50
ATOM     50  N   UNL     1      43.450 -13.205 -32.094  0.00  0.00    +0.382 N 
BRANCH  50  51
ATOM     51  C   UNL     1      44.236 -12.818 -32.575  0.00  0.00    -0.091 C 
ATOM     52  C   UNL     1      44.579 -12.288 -34.029  0.00  0.00    -0.080 C 
ENDBRANCH  50  51
BRANCH  50  53
ATOM     53  C   UNL     1      43.299 -11.694 -31.020  0.00  0.00    -0.091 C 
ATOM     54  C   UNL     1      44.184 -11.845 -29.770  0.00  0.00    -0.080 C 
ENDBRANCH  50  53
BRANCH  50  55
ATOM     55  C   UNL     1      42.663 -13.593 -31.613  0.00  0.00    -0.091 C 
ATOM     56  C   UNL     1      41.213 -14.101 -31.973  0.00  0.00    -0.080 C 
ENDBRANCH  50  55
ENDBRANCH  49  50
ENDBRANCH  48  49
ENDBRANCH  47  48
ENDBRANCH   6  47
BRANCH   3  57
ATOM     57  O   UNL     1      40.548 -19.031 -35.771  0.00  0.00    -0.493 OA
BRANCH  57  58
ATOM     58  C   UNL     1      39.194 -18.831 -36.132  0.00  0.00    +0.075 C 
BRANCH  58  59
ATOM     59  C   UNL     1      39.028 -18.438 -37.635  0.00  0.00    -0.053 C 
BRANCH  59  60
ATOM     60  N   UNL     1      37.940 -16.938 -37.913  0.00  0.00    +0.382 N 
BRANCH  60  61
ATOM     61  C   UNL     1      37.184 -17.547 -38.153  0.00  0.00    -0.091 C 
ATOM     62  C   UNL     1      35.857 -17.357 -37.347  0.00  0.00    -0.080 C 
ENDBRANCH  60  61
BRANCH  60  63
ATOM     63  C   UNL     1      38.206 -16.648 -39.750  0.00  0.00    -0.091 C 
ATOM     64  C   UNL     1      39.488 -15.886 -40.088  0.00  0.00    -0.080 C 
ENDBRANCH  60  63
BRANCH  60  65
ATOM     65  C   UNL     1      38.696 -16.329 -37.673  0.00  0.00    -0.091 C 
ATOM     66  C   UNL     1      38.316 -15.280 -36.563  0.00  0.00    -0.080 C 
ENDBRANCH  60  65
ENDBRANCH  59  60
ENDBRANCH  58  59
ENDBRANCH  57  58
ENDBRANCH   3  57
TORSDOF 30
ENDMDL
MODEL 19
REMARK VINA RESULT:    -6.143      2.591      9.257
REMARK INTER + INTRA:          -5.800
REMARK INTER:                 -13.800
REMARK INTRA:                   8.000
REMARK UNBOUND:                 8.064
REMARK  Name = cpd109.pdb
REMARK  39 active torsions:
REMARK  status: ('A' for Active; 'I' for Inactive)
REMARK    1  A    between atoms: C_1  and  C_2
REMARK    2  A    between atoms: C_2  and  N_3
REMARK    3  A    between atoms: N_3  and  C_4
REMARK    4  A    between atoms: N_3  and  C_6
REMARK    5  A    between atoms: N_3  and  C_8
REMARK    6  A    between atoms: C_4  and  C_5
REMARK    7  A    between atoms: C_6  and  C_7
REMARK    8  A    between atoms: C_8  and  C_9
REMARK    9  A    between atoms: C_9  and  O_10
REMARK   10  A    between atoms: O_10  and  C_11
REMARK   11  A    between atoms: C_13  and  O_14
REMARK   12  A    between atoms: O_14  and  C_15
REMARK   13  A    between atoms: C_15  and  C_16
REMARK   14  A    between atoms: C_16  and  N_17
REMARK   15  A    between atoms: N_17  and  C_18
REMARK   16  A    between atoms: N_17  and  C_20
REMARK   17  A    between atoms: N_17  and  C_22
REMARK   18  A    between atoms: C_18  and  C_19
REMARK   19  A    between atoms: C_20  and  C_21
REMARK   20  A    between atoms: C_22  and  C_23
REMARK   21  A    between atoms: C_24  and  C_25
REMARK   22  A    between atoms: N_27  and  C_28
REMARK   23  A    between atoms: C_28  and  C_29
REMARK   24  A    between atoms: C_29  and  C_30
REMARK   25  A    between atoms: C_30  and  C_31
REMARK   26  A    between atoms: C_31  and  C_32
REMARK   27  A    between atoms: C_32  and  C_33
REMARK   28  A    between atoms: N_35  and  N_36
REMARK   29  A    between atoms: N_36  and  C_37
REMARK   30  A    between atoms: C_53  and  O_54
REMARK   31  A    between atoms: O_54  and  C_55
REMARK   32  A    between atoms: C_55  and  C_56
REMARK   33  A    between atoms: C_56  and  N_57
REMARK   34  A    between atoms: N_57  and  C_58
REMARK   35  A    between atoms: N_57  and  C_60
REMARK   36  A    between atoms: N_57  and  C_62
REMARK   37  A    between atoms: C_58  and  C_59
REMARK   38  A    between atoms: C_60  and  C_61
REMARK   39  A    between atoms: C_62  and  C_63
REMARK                            x       y       z     vdW  Elec       q    Type
REMARK                         _______ _______ _______ _____ _____    ______ ____
ROOT
ATOM      1  C   UNL     1      41.837 -18.108 -33.601  0.00  0.00    +0.165 A 
ATOM      2  C   UNL     1      42.671 -17.784 -34.677  0.00  0.00    +0.026 A 
ATOM      3  C   UNL     1      43.194 -16.486 -34.814  0.00  0.00    +0.136 A 
ATOM      4  C   UNL     1      42.904 -15.519 -33.828  0.00  0.00    +0.082 A 
ATOM      5  C   UNL     1      42.010 -15.817 -32.795  0.00  0.00    -0.001 A 
ATOM      6  C   UNL     1      41.406 -17.081 -32.751  0.00  0.00    +0.163 A 
ENDROOT
BRANCH   4   7
ATOM      7  C   UNL     1      43.483 -14.153 -33.973  0.00  0.00    +0.248 C 
ATOM      8  O   UNL     1      44.344 -13.773 -33.188  0.00  0.00    -0.270 OA
ATOM      9  N   UNL     1      43.077 -13.443 -35.084  0.00  0.00    -0.311 N 
ATOM     10  H   UNL     1      42.206 -13.639 -35.500  0.00  0.00    +0.000 HD
BRANCH   9  11
ATOM     11  C   UNL     1      43.930 -12.407 -35.640  0.00  0.00    +0.012 C 
BRANCH  11  12
ATOM     12  C   UNL     1      44.486 -12.722 -37.025  0.00  0.00    -0.037 C 
BRANCH  12  13
ATOM     13  C   UNL     1      45.881 -13.337 -36.881  0.00  0.00    -0.051 C 
BRANCH  13  14
ATOM     14  C   UNL     1      46.718 -13.232 -38.159  0.00  0.00    -0.045 C 
BRANCH  14  15
ATOM     15  C   UNL     1      47.210 -14.605 -38.628  0.00  0.00    +0.025 C 
BRANCH  15  16
ATOM     16  C   UNL     1      46.638 -14.959 -39.987  0.00  0.00    +0.229 C 
ATOM     17  O   UNL     1      46.469 -14.115 -40.864  0.00  0.00    -0.274 OA
ATOM     18  N   UNL     1      46.264 -16.287 -40.092  0.00  0.00    -0.236 N 
ATOM     19  H   UNL     1      46.606 -16.969 -39.469  0.00  0.00    +0.000 HD
BRANCH  18  20
ATOM     20  N   UNL     1      45.367 -16.623 -41.134  0.00  0.00    -0.264 N 
ATOM     21  H   UNL     1      45.373 -16.210 -42.028  0.00  0.00    +0.000 HD
BRANCH  20  22
ATOM     22  C   UNL     1      44.455 -17.638 -40.721  0.00  0.00    +0.058 A 
ATOM     23  C   UNL     1      44.698 -18.992 -41.029  0.00  0.00    -0.003 A 
ATOM     24  C   UNL     1      43.789 -19.933 -40.541  0.00  0.00    +0.047 A 
ATOM     25  N   UNL     1      42.738 -19.607 -39.748  0.00  0.00    -0.251 NA
ATOM     26  C   UNL     1      42.529 -18.326 -39.427  0.00  0.00    +0.074 A 
ATOM     27  C   UNL     1      41.458 -18.025 -38.597  0.00  0.00    -0.017 A 
ATOM     28  C   UNL     1      41.175 -16.712 -38.228  0.00  0.00    +0.043 A 
ATOM     29 CL   UNL     1      39.835 -16.374 -37.202  0.00  0.00    -0.083 Cl
ATOM     30  C   UNL     1      41.957 -15.667 -38.700  0.00  0.00    -0.043 A 
ATOM     31  C   UNL     1      43.031 -15.952 -39.538  0.00  0.00    -0.049 A 
ATOM     32  C   UNL     1      43.350 -17.286 -39.897  0.00  0.00    +0.023 A 
ATOM     33  C   UNL     1      43.955 -21.409 -40.803  0.00  0.00    -0.010 C 
ATOM     34  C   UNL     1      44.853 -21.711 -41.997  0.00  0.00    -0.047 C 
ATOM     35  C   UNL     1      46.145 -20.916 -41.881  0.00  0.00    -0.049 C 
ATOM     36  C   UNL     1      45.856 -19.416 -41.900  0.00  0.00    -0.024 C 
ENDBRANCH  20  22
ENDBRANCH  18  20
ENDBRANCH  15  16
ENDBRANCH  14  15
ENDBRANCH  13  14
ENDBRANCH  12  13
ENDBRANCH  11  12
ENDBRANCH   9  11
ENDBRANCH   4   7
BRANCH   1  37
ATOM     37  O   UNL     1      41.308 -19.351 -33.400  0.00  0.00    -0.490 OA
BRANCH  37  38
ATOM     38  C   UNL     1      41.790 -20.446 -34.189  0.00  0.00    +0.076 C 
BRANCH  38  39
ATOM     39  C   UNL     1      40.835 -20.795 -35.660  0.00  0.00    -0.053 C 
BRANCH  39  40
ATOM     40  N   UNL     1      40.109 -21.482 -35.707  0.00  0.00    +0.382 N 
BRANCH  40  42
ATOM     41  C   UNL     1      38.540 -19.724 -36.327  0.00  0.00    -0.080 C 
ATOM     42  C   UNL     1      39.450 -20.808 -35.374  0.00  0.00    -0.091 C 
ENDBRANCH  40  42
BRANCH  40  43
ATOM     43  C   UNL     1      39.383 -22.168 -35.753  0.00  0.00    -0.091 C 
ATOM     44  C   UNL     1      38.942 -23.107 -34.411  0.00  0.00    -0.080 C 
ENDBRANCH  40  43
BRANCH  40  45
ATOM     45  C   UNL     1      40.768 -22.156 -36.040  0.00  0.00    -0.091 C 
ATOM     46  C   UNL     1      41.009 -22.151 -37.782  0.00  0.00    -0.080 C 
ENDBRANCH  40  45
ENDBRANCH  39  40
ENDBRANCH  38  39
ENDBRANCH  37  38
ENDBRANCH   1  37
BRANCH   6  47
ATOM     47  O   UNL     1      40.342 -17.193 -31.898  0.00  0.00    -0.490 OA
BRANCH  47  48
ATOM     48  C   UNL     1      39.358 -16.136 -31.932  0.00  0.00    +0.076 C 
BRANCH  48  49
ATOM     49  C   UNL     1      38.274 -16.272 -33.060  0.00  0.00    -0.053 C 
BRANCH  49  50
ATOM     50  N   UNL     1      36.697 -17.135 -32.511  0.00  0.00    +0.382 N 
BRANCH  50  51
ATOM     51  C   UNL     1      37.027 -17.949 -32.990  0.00  0.00    -0.091 C 
ATOM     52  C   UNL     1      37.308 -19.473 -32.658  0.00  0.00    -0.080 C 
ENDBRANCH  50  51
BRANCH  50  53
ATOM     53  C   UNL     1      35.287 -16.943 -33.709  0.00  0.00    -0.091 C 
ATOM     54  C   UNL     1      35.803 -17.062 -35.154  0.00  0.00    -0.080 C 
ENDBRANCH  50  53
BRANCH  50  55
ATOM     55  C   UNL     1      36.367 -16.321 -32.033  0.00  0.00    -0.091 C 
ATOM     56  C   UNL     1      35.585 -15.990 -30.702  0.00  0.00    -0.080 C 
ENDBRANCH  50  55
ENDBRANCH  49  50
ENDBRANCH  48  49
ENDBRANCH  47  48
ENDBRANCH   6  47
BRANCH   3  57
ATOM     57  O   UNL     1      43.934 -16.040 -35.876  0.00  0.00    -0.493 OA
BRANCH  57  58
ATOM     58  C   UNL     1      44.821 -16.852 -36.623  0.00  0.00    +0.075 C 
BRANCH  58  59
ATOM     59  C   UNL     1      46.219 -16.995 -35.940  0.00  0.00    -0.053 C 
BRANCH  59  60
ATOM     60  N   UNL     1      46.907 -18.738 -35.973  0.00  0.00    +0.382 N 
BRANCH  60  61
ATOM     61  C   UNL     1      47.832 -18.359 -35.960  0.00  0.00    -0.091 C 
ATOM     62  C   UNL     1      48.831 -18.998 -34.941  0.00  0.00    -0.080 C 
ENDBRANCH  60  61
BRANCH  60  63
ATOM     63  C   UNL     1      47.107 -19.001 -37.823  0.00  0.00    -0.091 C 
ATOM     64  C   UNL     1      47.058 -20.466 -38.259  0.00  0.00    -0.080 C 
ENDBRANCH  60  63
BRANCH  60  65
ATOM     65  C   UNL     1      45.981 -19.116 -35.985  0.00  0.00    -0.091 C 
ATOM     66  C   UNL     1      45.693 -20.081 -34.776  0.00  0.00    -0.080 C 
ENDBRANCH  60  65
ENDBRANCH  59  60
ENDBRANCH  58  59
ENDBRANCH  57  58
ENDBRANCH   3  57
TORSDOF 30
ENDMDL
MODEL 20
REMARK VINA RESULT:    -6.125      3.309      7.943
REMARK INTER + INTRA:          -5.759
REMARK INTER:                 -14.386
REMARK INTRA:                   8.627
REMARK UNBOUND:                 8.064
REMARK  Name = cpd109.pdb
REMARK  39 active torsions:
REMARK  status: ('A' for Active; 'I' for Inactive)
REMARK    1  A    between atoms: C_1  and  C_2
REMARK    2  A    between atoms: C_2  and  N_3
REMARK    3  A    between atoms: N_3  and  C_4
REMARK    4  A    between atoms: N_3  and  C_6
REMARK    5  A    between atoms: N_3  and  C_8
REMARK    6  A    between atoms: C_4  and  C_5
REMARK    7  A    between atoms: C_6  and  C_7
REMARK    8  A    between atoms: C_8  and  C_9
REMARK    9  A    between atoms: C_9  and  O_10
REMARK   10  A    between atoms: O_10  and  C_11
REMARK   11  A    between atoms: C_13  and  O_14
REMARK   12  A    between atoms: O_14  and  C_15
REMARK   13  A    between atoms: C_15  and  C_16
REMARK   14  A    between atoms: C_16  and  N_17
REMARK   15  A    between atoms: N_17  and  C_18
REMARK   16  A    between atoms: N_17  and  C_20
REMARK   17  A    between atoms: N_17  and  C_22
REMARK   18  A    between atoms: C_18  and  C_19
REMARK   19  A    between atoms: C_20  and  C_21
REMARK   20  A    between atoms: C_22  and  C_23
REMARK   21  A    between atoms: C_24  and  C_25
REMARK   22  A    between atoms: N_27  and  C_28
REMARK   23  A    between atoms: C_28  and  C_29
REMARK   24  A    between atoms: C_29  and  C_30
REMARK   25  A    between atoms: C_30  and  C_31
REMARK   26  A    between atoms: C_31  and  C_32
REMARK   27  A    between atoms: C_32  and  C_33
REMARK   28  A    between atoms: N_35  and  N_36
REMARK   29  A    between atoms: N_36  and  C_37
REMARK   30  A    between atoms: C_53  and  O_54
REMARK   31  A    between atoms: O_54  and  C_55
REMARK   32  A    between atoms: C_55  and  C_56
REMARK   33  A    between atoms: C_56  and  N_57
REMARK   34  A    between atoms: N_57  and  C_58
REMARK   35  A    between atoms: N_57  and  C_60
REMARK   36  A    between atoms: N_57  and  C_62
REMARK   37  A    between atoms: C_58  and  C_59
REMARK   38  A    between atoms: C_60  and  C_61
REMARK   39  A    between atoms: C_62  and  C_63
REMARK                            x       y       z     vdW  Elec       q    Type
REMARK                         _______ _______ _______ _____ _____    ______ ____
ROOT
ATOM      1  C   UNL     1      42.465 -15.724 -35.193  0.00  0.00    +0.165 A 
ATOM      2  C   UNL     1      41.512 -16.652 -35.628  0.00  0.00    +0.026 A 
ATOM      3  C   UNL     1      41.127 -17.725 -34.804  0.00  0.00    +0.136 A 
ATOM      4  C   UNL     1      41.681 -17.833 -33.510  0.00  0.00    +0.082 A 
ATOM      5  C   UNL     1      42.688 -16.952 -33.104  0.00  0.00    -0.001 A 
ATOM      6  C   UNL     1      43.142 -15.967 -33.991  0.00  0.00    +0.163 A 
ENDROOT
BRANCH   4   7
ATOM      7  C   UNL     1      41.247 -18.961 -32.639  0.00  0.00    +0.248 C 
ATOM      8  O   UNL     1      40.458 -18.753 -31.725  0.00  0.00    -0.270 OA
ATOM      9  N   UNL     1      41.693 -20.213 -33.010  0.00  0.00    -0.311 N 
ATOM     10  H   UNL     1      42.523 -20.304 -33.531  0.00  0.00    +0.000 HD
BRANCH   9  11
ATOM     11  C   UNL     1      40.939 -21.397 -32.635  0.00  0.00    +0.012 C 
BRANCH  11  12
ATOM     12  C   UNL     1      39.788 -21.738 -33.577  0.00  0.00    -0.037 C 
BRANCH  12  13
ATOM     13  C   UNL     1      40.248 -22.810 -34.569  0.00  0.00    -0.051 C 
BRANCH  13  14
ATOM     14  C   UNL     1      41.091 -22.245 -35.715  0.00  0.00    -0.045 C 
BRANCH  14  15
ATOM     15  C   UNL     1      40.295 -22.175 -37.023  0.00  0.00    +0.025 C 
BRANCH  15  16
ATOM     16  C   UNL     1      40.760 -21.019 -37.887  0.00  0.00    +0.229 C 
ATOM     17  O   UNL     1      40.288 -20.804 -39.001  0.00  0.00    -0.274 OA
ATOM     18  N   UNL     1      41.805 -20.306 -37.326  0.00  0.00    -0.236 N 
ATOM     19  H   UNL     1      42.008 -20.362 -36.363  0.00  0.00    +0.000 HD
BRANCH  18  20
ATOM     20  N   UNL     1      42.570 -19.492 -38.196  0.00  0.00    -0.264 N 
ATOM     21  H   UNL     1      42.205 -18.745 -38.724  0.00  0.00    +0.000 HD
BRANCH  20  22
ATOM     22  C   UNL     1      43.938 -19.894 -38.207  0.00  0.00    +0.058 A 
ATOM     23  C   UNL     1      44.758 -19.685 -37.080  0.00  0.00    -0.003 A 
ATOM     24  C   UNL     1      46.070 -20.158 -37.146  0.00  0.00    +0.047 A 
ATOM     25  N   UNL     1      46.556 -20.848 -38.207  0.00  0.00    -0.251 NA
ATOM     26  C   UNL     1      45.767 -21.077 -39.261  0.00  0.00    +0.074 A 
ATOM     27  C   UNL     1      46.286 -21.805 -40.324  0.00  0.00    -0.017 A 
ATOM     28  C   UNL     1      45.524 -22.073 -41.458  0.00  0.00    +0.043 A 
ATOM     29 CL   UNL     1      46.200 -22.974 -42.759  0.00  0.00    -0.083 Cl
ATOM     30  C   UNL     1      44.223 -21.601 -41.556  0.00  0.00    -0.043 A 
ATOM     31  C   UNL     1      43.690 -20.865 -40.502  0.00  0.00    -0.049 A 
ATOM     32  C   UNL     1      44.443 -20.610 -39.328  0.00  0.00    +0.023 A 
ATOM     33  C   UNL     1      47.032 -19.996 -35.995  0.00  0.00    -0.010 C 
ATOM     34  C   UNL     1      46.629 -18.893 -35.025  0.00  0.00    -0.047 C 
ATOM     35  C   UNL     1      45.167 -19.060 -34.638  0.00  0.00    -0.049 C 
ATOM     36  C   UNL     1      44.268 -18.930 -35.867  0.00  0.00    -0.024 C 
ENDBRANCH  20  22
ENDBRANCH  18  20
ENDBRANCH  15  16
ENDBRANCH  14  15
ENDBRANCH  13  14
ENDBRANCH  12  13
ENDBRANCH  11  12
ENDBRANCH   9  11
ENDBRANCH   4   7
BRANCH   1  37
ATOM     37  O   UNL     1      42.871 -14.651 -35.935  0.00  0.00    -0.490 OA
BRANCH  37  38
ATOM     38  C   UNL     1      42.733 -14.701 -37.361  0.00  0.00    +0.076 C 
BRANCH  38  39
ATOM     39  C   UNL     1      44.263 -14.923 -38.261  0.00  0.00    -0.053 C 
BRANCH  39  40
ATOM     40  N   UNL     1      44.380 -15.570 -39.015  0.00  0.00    +0.382 N 
BRANCH  40  42
ATOM     41  C   UNL     1      46.286 -16.363 -37.719  0.00  0.00    -0.080 C 
ATOM     42  C   UNL     1      44.712 -16.259 -38.371  0.00  0.00    -0.091 C 
ENDBRANCH  40  42
BRANCH  40  43
ATOM     43  C   UNL     1      44.497 -16.217 -39.768  0.00  0.00    -0.091 C 
ATOM     44  C   UNL     1      43.176 -16.894 -40.589  0.00  0.00    -0.080 C 
ENDBRANCH  40  43
BRANCH  40  45
ATOM     45  C   UNL     1      44.048 -14.881 -39.658  0.00  0.00    -0.091 C 
ATOM     46  C   UNL     1      45.259 -13.716 -40.179  0.00  0.00    -0.080 C 
ENDBRANCH  40  45
ENDBRANCH  39  40
ENDBRANCH  38  39
ENDBRANCH  37  38
ENDBRANCH   1  37
BRANCH   6  47
ATOM     47  O   UNL     1      44.308 -15.348 -33.634  0.00  0.00    -0.490 OA
BRANCH  47  48
ATOM     48  C   UNL     1      44.261 -14.462 -32.493  0.00  0.00    +0.076 C 
BRANCH  48  49
ATOM     49  C   UNL     1      44.244 -12.932 -32.842  0.00  0.00    -0.053 C 
BRANCH  49  50
ATOM     50  N   UNL     1      43.878 -11.814 -31.375  0.00  0.00    +0.382 N 
BRANCH  50  51
ATOM     51  C   UNL     1      44.861 -11.810 -31.189  0.00  0.00    -0.091 C 
ATOM     52  C   UNL     1      46.018 -10.740 -31.010  0.00  0.00    -0.080 C 
ENDBRANCH  50  51
BRANCH  50  53
ATOM     53  C   UNL     1      43.533 -12.740 -29.799  0.00  0.00    -0.091 C 
ATOM     54  C   UNL     1      43.163 -11.752 -28.678  0.00  0.00    -0.080 C 
ENDBRANCH  50  53
BRANCH  50  55
ATOM     55  C   UNL     1      42.896 -11.818 -31.561  0.00  0.00    -0.091 C 
ATOM     56  C   UNL     1      41.836 -10.869 -32.245  0.00  0.00    -0.080 C 
ENDBRANCH  50  55
ENDBRANCH  49  50
ENDBRANCH  48  49
ENDBRANCH  47  48
ENDBRANCH   6  47
BRANCH   3  57
ATOM     57  O   UNL     1      40.283 -18.738 -35.170  0.00  0.00    -0.493 OA
BRANCH  57  58
ATOM     58  C   UNL     1      38.979 -18.541 -35.684  0.00  0.00    +0.075 C 
BRANCH  58  59
ATOM     59  C   UNL     1      38.148 -17.530 -34.831  0.00  0.00    -0.053 C 
BRANCH  59  60
ATOM     60  N   UNL     1      36.539 -18.233 -34.175  0.00  0.00    +0.382 N 
BRANCH  60  61
ATOM     61  C   UNL     1      36.068 -17.875 -34.981  0.00  0.00    -0.091 C 
ATOM     62  C   UNL     1      35.310 -18.919 -35.864  0.00  0.00    -0.080 C 
ENDBRANCH  60  61
BRANCH  60  63
ATOM     63  C   UNL     1      35.879 -16.760 -33.212  0.00  0.00    -0.091 C 
ATOM     64  C   UNL     1      36.314 -16.719 -31.747  0.00  0.00    -0.080 C 
ENDBRANCH  60  63
BRANCH  60  65
ATOM     65  C   UNL     1      37.010 -18.592 -33.368  0.00  0.00    -0.091 C 
ATOM     66  C   UNL     1      36.615 -20.078 -33.032  0.00  0.00    -0.080 C 
ENDBRANCH  60  65
ENDBRANCH  59  60
ENDBRANCH  58  59
ENDBRANCH  57  58
ENDBRANCH   3  57
TORSDOF 30
ENDMDL
