@<TRIPOS>MOLECULE
*****
 63 66 0 0 0
SMALL
GASTEIGER

@<TRIPOS>ATOM
      1 C           0.1340   -1.5000    0.0000 C.3     1  UNL1        0.0671
      2 C           1.0000   -1.0000    0.0000 C.3     1  UNL1        0.1088
      3 N           1.0000    0.0000    0.0000 N.4     1  UNL1        0.2998
      4 C           2.0000    0.0000    0.0000 C.3     1  UNL1        0.1088
      5 C           2.5000    0.8660    0.0000 C.3     1  UNL1        0.0671
      6 C           1.0000    1.0000    0.0000 C.3     1  UNL1        0.1088
      7 C           0.1340    1.5000    0.0000 C.3     1  UNL1        0.0671
      8 C           0.0000    0.0000    0.0000 C.3     1  UNL1        0.1566
      9 C          -0.5000    0.8660    0.0000 C.3     1  UNL1        0.2659
     10 O          -1.5000    0.8660    0.0000 O.3     1  UNL1       -0.4659
     11 C          -2.0000    1.7321    0.0000 C.ar    1  UNL1        0.1755
     12 C          -3.0000    1.7321    0.0000 C.ar    1  UNL1        0.0770
     13 C          -3.5000    2.5981    0.0000 C.ar    1  UNL1        0.1464
     14 O          -4.5000    2.5981    0.0000 O.3     1  UNL1       -0.4688
     15 C          -5.0000    1.7321    0.0000 C.3     1  UNL1        0.2658
     16 C          -6.0000    1.7321    0.0000 C.3     1  UNL1        0.1566
     17 N          -6.5000    0.8660    0.0000 N.4     1  UNL1        0.2998
     18 C          -5.6340    0.3660    0.0000 C.3     1  UNL1        0.1088
     19 C          -5.6340   -0.6340    0.0000 C.3     1  UNL1        0.0671
     20 C          -7.0000   -0.0000    0.0000 C.3     1  UNL1        0.1088
     21 C          -8.0000   -0.0000    0.0000 C.3     1  UNL1        0.0671
     22 C          -7.3660    1.3660    0.0000 C.3     1  UNL1        0.1088
     23 C          -8.2321    0.8660    0.0000 C.3     1  UNL1        0.0671
     24 C          -3.0000    3.4641    0.0000 C.ar    1  UNL1        0.0921
     25 C          -3.5000    4.3301    0.0000 C.2     1  UNL1        0.2678
     26 O          -3.0000    5.1962    0.0000 O.2     1  UNL1       -0.2683
     27 N          -4.5000    4.3301    0.0000 N.am    1  UNL1       -0.2016
     28 C          -5.0000    5.1962    0.0000 C.3     1  UNL1        0.1155
     29 C          -6.0000    5.1962    0.0000 C.3     1  UNL1        0.0235
     30 C          -6.5000    6.0622    0.0000 C.3     1  UNL1        0.0023
     31 C          -7.5000    6.0622    0.0000 C.3     1  UNL1        0.0097
     32 C          -8.0000    6.9282    0.0000 C.3     1  UNL1        0.0885
     33 C          -9.0000    6.9282    0.0000 C.2     1  UNL1        0.2606
     34 O          -9.5000    7.7942    0.0000 O.2     1  UNL1       -0.2717
     35 N          -9.5000    6.0622    0.0000 N.am    1  UNL1       -0.0905
     36 N         -10.5000    6.0622    0.0000 N.pl3   1  UNL1       -0.1256
     37 C         -11.0000    5.1962    0.0000 C.ar    1  UNL1        0.0877
     38 C         -12.0000    5.1962    0.0000 C.ar    1  UNL1        0.0081
     39 C         -12.5000    4.3301    0.0000 C.ar    1  UNL1        0.0563
     40 N         -12.0000    3.4641    0.0000 N.ar    1  UNL1       -0.2499
     41 C         -11.0000    3.4641    0.0000 C.ar    1  UNL1        0.0830
     42 C         -10.5000    2.5981    0.0000 C.ar    1  UNL1        0.0305
     43 C          -9.5000    2.5981    0.0000 C.ar    1  UNL1        0.0592
     44 CL         -9.0000    1.7321    0.0000 Cl      1  UNL1       -0.0822
     45 C          -9.0000    3.4641    0.0000 C.ar    1  UNL1        0.0115
     46 C          -9.5000    4.3301    0.0000 C.ar    1  UNL1        0.0037
     47 C         -10.5000    4.3301    0.0000 C.ar    1  UNL1        0.0342
     48 C         -13.5000    4.3301    0.0000 C.3     1  UNL1        0.0455
     49 C         -14.0000    5.1962    0.0000 C.3     1  UNL1        0.0066
     50 C         -13.5000    6.0622    0.0000 C.3     1  UNL1        0.0052
     51 C         -12.5000    6.0622    0.0000 C.3     1  UNL1        0.0289
     52 C          -2.0000    3.4641    0.0000 C.ar    1  UNL1        0.0477
     53 C          -1.5000    2.5981    0.0000 C.ar    1  UNL1        0.1729
     54 O          -0.5000    2.5981    0.0000 O.3     1  UNL1       -0.4660
     55 C           0.0000    3.4641    0.0000 C.3     1  UNL1        0.2659
     56 C          -0.5000    4.3301    0.0000 C.3     1  UNL1        0.1566
     57 N           0.0000    5.1962    0.0000 N.4     1  UNL1        0.2998
     58 C           0.8660    4.6962    0.0000 C.3     1  UNL1        0.1088
     59 C           1.7321    5.1962    0.0000 C.3     1  UNL1        0.0671
     60 C           0.5000    6.0622    0.0000 C.3     1  UNL1        0.1088
     61 C           0.0000    6.9282    0.0000 C.3     1  UNL1        0.0671
     62 C          -0.8660    5.6962    0.0000 C.3     1  UNL1        0.1088
     63 C          -0.8660    6.6962    0.0000 C.3     1  UNL1        0.0671
@<TRIPOS>UNITY_ATOM_ATTR
3 1
charge 1
17 1
charge 1
57 1
charge 1
@<TRIPOS>BOND
     1     1     2    1
     2     2     3    1
     3     3     4    1
     4     4     5    1
     5     3     6    1
     6     6     7    1
     7     3     8    1
     8     8     9    1
     9     9    10    1
    10    10    11    1
    11    11    12   ar
    12    12    13   ar
    13    13    14    1
    14    14    15    1
    15    15    16    1
    16    16    17    1
    17    17    18    1
    18    18    19    1
    19    17    20    1
    20    20    21    1
    21    17    22    1
    22    22    23    1
    23    13    24   ar
    24    24    25    1
    25    25    26    2
    26    25    27   am
    27    27    28    1
    28    28    29    1
    29    29    30    1
    30    30    31    1
    31    31    32    1
    32    32    33    1
    33    33    34    2
    34    33    35   am
    35    35    36    1
    36    36    37    1
    37    37    38   ar
    38    38    39   ar
    39    39    40   ar
    40    40    41   ar
    41    41    42   ar
    42    42    43   ar
    43    43    44    1
    44    43    45   ar
    45    45    46   ar
    46    46    47   ar
    47    37    47   ar
    48    41    47   ar
    49    39    48    1
    50    48    49    1
    51    49    50    1
    52    50    51    1
    53    38    51    1
    54    24    52   ar
    55    52    53   ar
    56    11    53   ar
    57    53    54    1
    58    54    55    1
    59    55    56    1
    60    56    57    1
    61    57    58    1
    62    58    59    1
    63    57    60    1
    64    60    61    1
    65    57    62    1
    66    62    63    1
