REMARK  Name = cpd96.pdb
REMARK  11 active torsions:
REMARK  status: ('A' for Active; 'I' for Inactive)
REMARK    1  A    between atoms: C_1  and  O_2
REMARK    2  A    between atoms: O_2  and  C_3
REMARK    3  A    between atoms: C_5  and  C_6
REMARK    4  A    between atoms: N_8  and  C_9
REMARK    5  A    between atoms: C_9  and  C_10
REMARK    6  A    between atoms: N_12  and  N_13
REMARK    7  A    between atoms: N_13  and  C_14
REMARK    8  A    between atoms: C_29  and  O_30
REMARK    9  A    between atoms: O_30  and  C_31
REMARK   10  A    between atoms: C_32  and  O_33
REMARK   11  A    between atoms: O_33  and  C_34
REMARK                            x       y       z     vdW  Elec       q    Type
REMARK                         _______ _______ _______ _____ _____    ______ ____
ROOT
ATOM      1  C   UNL A   1      -4.205  -4.345  -2.580  0.00  0.00    +0.246 C 
ATOM      2  O   UNL A   1      -4.655  -5.431  -2.951  0.00  0.00    -0.273 OA
ATOM      3  N   UNL A   1      -5.012  -3.327  -2.104  0.00  0.00    -0.235 N 
ATOM      4  H   UNL A   1      -4.631  -2.508  -1.713  0.00  0.00    +0.000 HD
ENDROOT
BRANCH   3   5
ATOM      5  N   UNL A   1      -6.416  -3.519  -2.206  0.00  0.00    -0.263 N 
ATOM      6  H   UNL A   1      -6.902  -3.701  -3.042  0.00  0.00    +0.000 HD
BRANCH   5   7
ATOM      7  C   UNL A   1      -7.019  -3.408  -0.912  0.00  0.00    +0.058 A 
ATOM      8  C   UNL A   1      -7.385  -4.563  -0.186  0.00  0.00    -0.003 A 
ATOM      9  C   UNL A   1      -7.857  -4.381   1.117  0.00  0.00    +0.047 A 
ATOM     10  N   UNL A   1      -8.003  -3.163   1.691  0.00  0.00    -0.251 NA
ATOM     11  C   UNL A   1      -7.674  -2.068   0.994  0.00  0.00    +0.073 A 
ATOM     12  C   UNL A   1      -7.838  -0.831   1.605  0.00  0.00    -0.036 A 
ATOM     13  C   UNL A   1      -7.530   0.364   0.953  0.00  0.00    -0.060 A 
ATOM     14  C   UNL A   1      -7.052   0.330  -0.348  0.00  0.00    -0.061 A 
ATOM     15  C   UNL A   1      -6.879  -0.901  -0.980  0.00  0.00    -0.051 A 
ATOM     16  C   UNL A   1      -7.175  -2.121  -0.320  0.00  0.00    +0.023 A 
ATOM     17  C   UNL A   1      -8.292  -5.541   1.975  0.00  0.00    -0.010 C 
ATOM     18  C   UNL A   1      -7.707  -6.874   1.529  0.00  0.00    -0.047 C 
ATOM     19  C   UNL A   1      -7.924  -7.051   0.035  0.00  0.00    -0.049 C 
ATOM     20  C   UNL A   1      -7.200  -5.955  -0.746  0.00  0.00    -0.024 C 
ENDBRANCH   5   7
ENDBRANCH   3   5
BRANCH   1  21
ATOM     21  C   UNL A   1      -2.736  -3.958  -2.780  0.00  0.00    +0.090 C 
BRANCH  21  24
ATOM     22  C   UNL A   1      -2.386  -1.702  -1.826  0.00  0.00    +0.245 C 
ATOM     23  O   UNL A   1      -3.195  -1.201  -2.601  0.00  0.00    -0.270 OA
ATOM     24  N   UNL A   1      -2.173  -3.060  -1.779  0.00  0.00    -0.303 N 
ATOM     25  H   UNL A   1      -1.627  -3.435  -1.051  0.00  0.00    +0.000 HD
BRANCH  22  28
ATOM     26  C   UNL A   1       0.277  -0.417   0.556  0.00  0.00    +0.166 A 
ATOM     27  C   UNL A   1      -0.400  -1.246  -0.340  0.00  0.00    -0.004 A 
ATOM     28  C   UNL A   1      -1.650  -0.861  -0.844  0.00  0.00    +0.044 A 
ATOM     29  C   UNL A   1      -2.219   0.367  -0.474  0.00  0.00    -0.004 A 
ATOM     30  C   UNL A   1      -1.553   1.210   0.416  0.00  0.00    +0.166 A 
ATOM     31  C   UNL A   1      -0.318   0.797   0.945  0.00  0.00    +0.204 A 
BRANCH  26  33
ATOM     32  C   UNL A   1       2.233  -1.788   0.575  0.00  0.00    +0.079 C 
ATOM     33  O   UNL A   1       1.498  -0.698   1.113  0.00  0.00    -0.491 OA
ENDBRANCH  26  33
BRANCH  30  34
ATOM     34  O   UNL A   1      -2.021   2.428   0.836  0.00  0.00    -0.491 OA
ATOM     35  C   UNL A   1      -3.127   2.978   0.132  0.00  0.00    +0.079 C 
ENDBRANCH  30  34
BRANCH  31  36
ATOM     36  O   UNL A   1       0.376   1.644   1.782  0.00  0.00    -0.488 OA
ATOM     37  C   UNL A   1       0.003   1.401   3.137  0.00  0.00    +0.079 C 
ENDBRANCH  31  36
ENDBRANCH  22  28
ENDBRANCH  21  24
ENDBRANCH   1  21
TORSDOF 8
