@<TRIPOS>MOLECULE
*****
 34 37 0 0 0
SMALL
GASTEIGER

@<TRIPOS>ATOM
      1 C           0.8660   -2.5000    0.0000 C.3     1  UNL1        0.2526
      2 O           0.8660   -1.5000    0.0000 O.3     1  UNL1       -0.4683
      3 C          -0.0000   -1.0000    0.0000 C.ar    1  UNL1        0.1756
      4 C          -0.8660   -1.5000    0.0000 C.ar    1  UNL1        0.0448
      5 C          -1.7321   -1.0000    0.0000 C.ar    1  UNL1        0.0613
      6 C          -2.5981   -1.5000    0.0000 C.2     1  UNL1        0.2654
      7 O          -3.4641   -1.0000    0.0000 O.2     1  UNL1       -0.2684
      8 N          -2.5981   -2.5000    0.0000 N.am    1  UNL1       -0.1916
      9 C          -3.4641   -3.0000    0.0000 C.3     1  UNL1        0.2034
     10 C          -4.3301   -2.5000    0.0000 C.2     1  UNL1        0.2828
     11 O          -4.3301   -1.5000    0.0000 O.2     1  UNL1       -0.2697
     12 N          -5.1962   -3.0000    0.0000 N.am    1  UNL1       -0.0890
     13 N          -6.0622   -2.5000    0.0000 N.pl3   1  UNL1       -0.1255
     14 C          -6.9282   -3.0000    0.0000 C.ar    1  UNL1        0.0877
     15 C          -6.9282   -4.0000    0.0000 C.ar    1  UNL1        0.0081
     16 C          -7.7942   -4.5000    0.0000 C.ar    1  UNL1        0.0563
     17 N          -8.6603   -4.0000    0.0000 N.ar    1  UNL1       -0.2499
     18 C          -8.6603   -3.0000    0.0000 C.ar    1  UNL1        0.0822
     19 C          -9.5263   -2.5000    0.0000 C.ar    1  UNL1        0.0191
     20 C          -9.5263   -1.5000    0.0000 C.ar    1  UNL1        0.0015
     21 C          -8.6603   -1.0000    0.0000 C.ar    1  UNL1        0.0001
     22 C          -7.7942   -1.5000    0.0000 C.ar    1  UNL1        0.0028
     23 C          -7.7942   -2.5000    0.0000 C.ar    1  UNL1        0.0341
     24 C          -7.7942   -5.5000    0.0000 C.3     1  UNL1        0.0455
     25 C          -6.9282   -6.0000    0.0000 C.3     1  UNL1        0.0066
     26 C          -6.0622   -5.5000    0.0000 C.3     1  UNL1        0.0052
     27 C          -6.0622   -4.5000    0.0000 C.3     1  UNL1        0.0289
     28 C          -1.7321    0.0000    0.0000 C.ar    1  UNL1        0.0448
     29 C          -0.8660    0.5000    0.0000 C.ar    1  UNL1        0.1756
     30 O          -0.8660    1.5000    0.0000 O.3     1  UNL1       -0.4683
     31 C          -1.7321    2.0000    0.0000 C.3     1  UNL1        0.2526
     32 C           0.0000    0.0000    0.0000 C.ar    1  UNL1        0.2061
     33 O           0.8660    0.5000    0.0000 O.3     1  UNL1       -0.4654
     34 C           0.8660    1.5000    0.0000 C.3     1  UNL1        0.2528
@<TRIPOS>BOND
     1     1     2    1
     2     2     3    1
     3     3     4   ar
     4     4     5   ar
     5     5     6    1
     6     6     7    2
     7     6     8   am
     8     8     9    1
     9     9    10    1
    10    10    11    2
    11    10    12   am
    12    12    13    1
    13    13    14    1
    14    14    15   ar
    15    15    16   ar
    16    16    17   ar
    17    17    18   ar
    18    18    19   ar
    19    19    20   ar
    20    20    21   ar
    21    21    22   ar
    22    22    23   ar
    23    14    23   ar
    24    18    23   ar
    25    16    24    1
    26    24    25    1
    27    25    26    1
    28    26    27    1
    29    15    27    1
    30     5    28   ar
    31    28    29   ar
    32    29    30    1
    33    30    31    1
    34    29    32   ar
    35     3    32   ar
    36    32    33    1
    37    33    34    1
