REMARK  Name = cpd262.pdb
REMARK  6 active torsions:
REMARK  status: ('A' for Active; 'I' for Inactive)
REMARK    1  A    between atoms: C_1  and  N_2
REMARK    2  A    between atoms: C_3  and  O_5
REMARK    3  A    between atoms: O_5  and  C_6
REMARK    4  A    between atoms: C_12  and  C_13
REMARK    5  A    between atoms: N_16  and  C_17
REMARK    6  A    between atoms: N_20  and  C_21
REMARK                            x       y       z     vdW  Elec       q    Type
REMARK                         _______ _______ _______ _____ _____    ______ ____
ROOT
ATOM      1  C   UNL A   1       3.652   0.856  -0.440  0.00  0.00    +0.134 A 
ATOM      2  C   UNL A   1       3.591  -0.299   0.360  0.00  0.00    -0.017 A 
ATOM      3  C   UNL A   1       2.391  -0.671   0.976  0.00  0.00    -0.037 A 
ATOM      4  C   UNL A   1       1.269   0.100   0.742  0.00  0.00    +0.032 A 
ATOM      5  C   UNL A   1       1.354   1.258  -0.061  0.00  0.00    -0.017 A 
ATOM      6  C   UNL A   1       2.529   1.652  -0.669  0.00  0.00    -0.014 A 
ATOM      7  C   UNL A   1       0.000   1.892   0.000  0.00  0.00    +0.002 C 
ATOM      8  C   UNL A   1      -0.030   2.815   1.249  0.00  0.00    -0.055 C 
ATOM      9  C   UNL A   1      -0.643   2.554  -1.186  0.00  0.00    -0.054 C 
ATOM     10  C   UNL A   1      -2.114   2.417  -0.813  0.00  0.00    -0.048 C 
ATOM     11  N   UNL A   1      -2.253   1.149   0.053  0.00  0.00    +0.433 N 
ATOM     12  C   UNL A   1      -3.305   0.271  -0.590  0.00  0.00    -0.060 C 
ATOM     13  O   UNL A   1      -2.699   1.450   1.313  0.00  0.00    -0.289 OA
ATOM     14  C   UNL A   1      -0.819   0.473   0.000  0.00  0.00    +0.039 C 
ATOM     15  N   UNL A   1      -0.060  -0.066   1.216  0.00  0.00    -0.341 N 
ATOM     16  C   UNL A   1      -0.437  -1.308   1.862  0.00  0.00    -0.001 C 
ENDROOT
BRANCH   1  17
ATOM     17  O   UNL A   1       4.828   1.216  -1.125  0.00  0.00    -0.412 OA
BRANCH  17  20
ATOM     18  C   UNL A   1       8.400   1.672  -0.818  0.00  0.00    +0.003 C 
ATOM     19  N   UNL A   1       7.032   1.615  -1.255  0.00  0.00    -0.284 N 
ATOM     20  C   UNL A   1       6.007   1.315  -0.400  0.00  0.00    +0.405 C 
ATOM     21  O   UNL A   1       6.133   1.153   0.805  0.00  0.00    -0.226 OA
ATOM     22  H   UNL A   1       6.826   1.798  -2.200  0.00  0.00    +0.000 HD
ENDBRANCH  17  20
ENDBRANCH   1  17
TORSDOF 2
