MODEL 1
REMARK VINA RESULT:    -7.571      0.000      0.000
REMARK INTER + INTRA:          -8.687
REMARK INTER:                  -8.456
REMARK INTRA:                  -0.231
REMARK UNBOUND:                -0.231
REMARK  Name = cpd262.pdb
REMARK  6 active torsions:
REMARK  status: ('A' for Active; 'I' for Inactive)
REMARK    1  A    between atoms: C_1  and  N_2
REMARK    2  A    between atoms: C_3  and  O_5
REMARK    3  A    between atoms: O_5  and  C_6
REMARK    4  A    between atoms: C_12  and  C_13
REMARK    5  A    between atoms: N_16  and  C_17
REMARK    6  A    between atoms: N_20  and  C_21
REMARK                            x       y       z     vdW  Elec       q    Type
REMARK                         _______ _______ _______ _____ _____    ______ ____
ROOT
ATOM      1  C   UNL A   1      40.054 -36.337 -30.752  0.00  0.00    +0.134 A 
ATOM      2  C   UNL A   1      39.477 -35.479 -31.705  0.00  0.00    -0.017 A 
ATOM      3  C   UNL A   1      38.086 -35.371 -31.811  0.00  0.00    -0.037 A 
ATOM      4  C   UNL A   1      37.305 -36.093 -30.930  0.00  0.00    +0.032 A 
ATOM      5  C   UNL A   1      37.905 -36.951 -29.984  0.00  0.00    -0.017 A 
ATOM      6  C   UNL A   1      39.274 -37.084 -29.869  0.00  0.00    -0.014 A 
ATOM      7  C   UNL A   1      36.773 -37.643 -29.292  0.00  0.00    +0.002 C 
ATOM      8  C   UNL A   1      36.407 -38.898 -30.131  0.00  0.00    -0.055 C 
ATOM      9  C   UNL A   1      36.785 -37.952 -27.821  0.00  0.00    -0.054 C 
ATOM     10  C   UNL A   1      35.288 -38.009 -27.540  0.00  0.00    -0.048 C 
ATOM     11  N   UNL A   1      34.595 -37.067 -28.546  0.00  0.00    +0.433 N 
ATOM     12  C   UNL A   1      33.753 -36.093 -27.751  0.00  0.00    -0.060 C 
ATOM     13  O   UNL A   1      33.742 -37.754 -29.369  0.00  0.00    -0.289 OA
ATOM     14  C   UNL A   1      35.789 -36.334 -29.290  0.00  0.00    +0.039 C 
ATOM     15  N   UNL A   1      35.891 -36.145 -30.806  0.00  0.00    -0.341 N 
ATOM     16  C   UNL A   1      35.077 -35.175 -31.511  0.00  0.00    -0.001 C 
ENDROOT
BRANCH   1  17
ATOM     17  O   UNL A   1      41.449 -36.414 -30.579  0.00  0.00    -0.412 OA
BRANCH  17  20
ATOM     18  C   UNL A   1      43.391 -39.404 -29.989  0.00  0.00    +0.003 C 
ATOM     19  N   UNL A   1      42.573 -38.227 -29.884  0.00  0.00    -0.284 N 
ATOM     20  C   UNL A   1      42.099 -37.570 -30.987  0.00  0.00    +0.405 C 
ATOM     21  O   UNL A   1      42.245 -37.952 -32.138  0.00  0.00    -0.226 OA
ATOM     22  H   UNL A   1      42.347 -37.882 -28.990  0.00  0.00    +0.000 HD
ENDBRANCH  17  20
ENDBRANCH   1  17
TORSDOF 2
ENDMDL
MODEL 2
REMARK VINA RESULT:    -7.204      2.137      3.681
REMARK INTER + INTRA:          -8.278
REMARK INTER:                  -8.060
REMARK INTRA:                  -0.217
REMARK UNBOUND:                -0.231
REMARK  Name = cpd262.pdb
REMARK  6 active torsions:
REMARK  status: ('A' for Active; 'I' for Inactive)
REMARK    1  A    between atoms: C_1  and  N_2
REMARK    2  A    between atoms: C_3  and  O_5
REMARK    3  A    between atoms: O_5  and  C_6
REMARK    4  A    between atoms: C_12  and  C_13
REMARK    5  A    between atoms: N_16  and  C_17
REMARK    6  A    between atoms: N_20  and  C_21
REMARK                            x       y       z     vdW  Elec       q    Type
REMARK                         _______ _______ _______ _____ _____    ______ ____
ROOT
ATOM      1  C   UNL A   1      38.237 -35.936 -31.346  0.00  0.00    +0.134 A 
ATOM      2  C   UNL A   1      38.323 -36.740 -30.196  0.00  0.00    -0.017 A 
ATOM      3  C   UNL A   1      37.284 -36.752 -29.260  0.00  0.00    -0.037 A 
ATOM      4  C   UNL A   1      36.162 -35.989 -29.519  0.00  0.00    +0.032 A 
ATOM      5  C   UNL A   1      36.098 -35.185 -30.678  0.00  0.00    -0.017 A 
ATOM      6  C   UNL A   1      37.116 -35.148 -31.609  0.00  0.00    -0.014 A 
ATOM      7  C   UNL A   1      34.812 -34.426 -30.572  0.00  0.00    +0.002 C 
ATOM      8  C   UNL A   1      35.094 -33.139 -29.750  0.00  0.00    -0.055 C 
ATOM      9  C   UNL A   1      33.938 -34.137 -31.760  0.00  0.00    -0.054 C 
ATOM     10  C   UNL A   1      32.586 -33.982 -31.074  0.00  0.00    -0.048 C 
ATOM     11  N   UNL A   1      32.609 -34.861 -29.808  0.00  0.00    +0.433 N 
ATOM     12  C   UNL A   1      31.412 -35.786 -29.874  0.00  0.00    -0.060 C 
ATOM     13  O   UNL A   1      32.469 -34.107 -28.672  0.00  0.00    -0.289 OA
ATOM     14  C   UNL A   1      33.972 -35.665 -29.907  0.00  0.00    +0.039 C 
ATOM     15  N   UNL A   1      34.970 -35.841 -28.759  0.00  0.00    -0.341 N 
ATOM     16  C   UNL A   1      34.712 -36.745 -27.655  0.00  0.00    -0.001 C 
ENDROOT
BRANCH   1  17
ATOM     17  O   UNL A   1      39.237 -35.957 -32.336  0.00  0.00    -0.412 OA
BRANCH  17  20
ATOM     18  C   UNL A   1      42.741 -35.999 -31.450  0.00  0.00    +0.003 C 
ATOM     19  N   UNL A   1      41.402 -36.314 -31.867  0.00  0.00    -0.284 N 
ATOM     20  C   UNL A   1      40.452 -35.348 -32.056  0.00  0.00    +0.405 C 
ATOM     21  O   UNL A   1      40.659 -34.146 -31.975  0.00  0.00    -0.226 OA
ATOM     22  H   UNL A   1      41.161 -37.256 -32.022  0.00  0.00    +0.000 HD
ENDBRANCH  17  20
ENDBRANCH   1  17
TORSDOF 2
ENDMDL
MODEL 3
REMARK VINA RESULT:    -6.482      1.553      2.019
REMARK INTER + INTRA:          -7.471
REMARK INTER:                  -7.398
REMARK INTRA:                  -0.073
REMARK UNBOUND:                -0.231
REMARK  Name = cpd262.pdb
REMARK  6 active torsions:
REMARK  status: ('A' for Active; 'I' for Inactive)
REMARK    1  A    between atoms: C_1  and  N_2
REMARK    2  A    between atoms: C_3  and  O_5
REMARK    3  A    between atoms: O_5  and  C_6
REMARK    4  A    between atoms: C_12  and  C_13
REMARK    5  A    between atoms: N_16  and  C_17
REMARK    6  A    between atoms: N_20  and  C_21
REMARK                            x       y       z     vdW  Elec       q    Type
REMARK                         _______ _______ _______ _____ _____    ______ ____
ROOT
ATOM      1  C   UNL A   1      38.615 -37.029 -29.777  0.00  0.00    +0.134 A 
ATOM      2  C   UNL A   1      38.513 -36.203 -30.910  0.00  0.00    -0.017 A 
ATOM      3  C   UNL A   1      37.281 -35.645 -31.271  0.00  0.00    -0.037 A 
ATOM      4  C   UNL A   1      36.189 -35.893 -30.462  0.00  0.00    +0.032 A 
ATOM      5  C   UNL A   1      36.314 -36.729 -29.331  0.00  0.00    -0.017 A 
ATOM      6  C   UNL A   1      37.515 -37.301 -28.963  0.00  0.00    -0.014 A 
ATOM      7  C   UNL A   1      34.932 -36.862 -28.773  0.00  0.00    +0.002 C 
ATOM      8  C   UNL A   1      34.239 -38.040 -29.511  0.00  0.00    -0.055 C 
ATOM      9  C   UNL A   1      34.650 -36.899 -27.297  0.00  0.00    -0.054 C 
ATOM     10  C   UNL A   1      33.214 -36.390 -27.279  0.00  0.00    -0.048 C 
ATOM     11  N   UNL A   1      33.041 -35.456 -28.493  0.00  0.00    +0.433 N 
ATOM     12  C   UNL A   1      32.522 -34.131 -27.978  0.00  0.00    -0.060 C 
ATOM     13  O   UNL A   1      32.103 -35.940 -29.367  0.00  0.00    -0.289 OA
ATOM     14  C   UNL A   1      34.501 -35.315 -29.097  0.00  0.00    +0.039 C 
ATOM     15  N   UNL A   1      34.849 -35.436 -30.583  0.00  0.00    -0.341 N 
ATOM     16  C   UNL A   1      34.538 -34.382 -31.528  0.00  0.00    -0.001 C 
ENDROOT
BRANCH   1  17
ATOM     17  O   UNL A   1      39.854 -37.549 -29.354  0.00  0.00    -0.412 OA
BRANCH  17  20
ATOM     18  C   UNL A   1      42.593 -37.895 -31.685  0.00  0.00    +0.003 C 
ATOM     19  N   UNL A   1      41.373 -38.020 -30.936  0.00  0.00    -0.284 N 
ATOM     20  C   UNL A   1      41.004 -37.104 -29.988  0.00  0.00    +0.405 C 
ATOM     21  O   UNL A   1      41.612 -36.071 -29.748  0.00  0.00    -0.226 OA
ATOM     22  H   UNL A   1      40.784 -38.788 -31.110  0.00  0.00    +0.000 HD
ENDBRANCH  17  20
ENDBRANCH   1  17
TORSDOF 2
ENDMDL
MODEL 4
REMARK VINA RESULT:    -6.335      2.767      4.576
REMARK INTER + INTRA:          -7.307
REMARK INTER:                  -7.106
REMARK INTRA:                  -0.201
REMARK UNBOUND:                -0.231
REMARK  Name = cpd262.pdb
REMARK  6 active torsions:
REMARK  status: ('A' for Active; 'I' for Inactive)
REMARK    1  A    between atoms: C_1  and  N_2
REMARK    2  A    between atoms: C_3  and  O_5
REMARK    3  A    between atoms: O_5  and  C_6
REMARK    4  A    between atoms: C_12  and  C_13
REMARK    5  A    between atoms: N_16  and  C_17
REMARK    6  A    between atoms: N_20  and  C_21
REMARK                            x       y       z     vdW  Elec       q    Type
REMARK                         _______ _______ _______ _____ _____    ______ ____
ROOT
ATOM      1  C   UNL A   1      36.970 -36.628 -30.060  0.00  0.00    +0.134 A 
ATOM      2  C   UNL A   1      36.504 -37.138 -28.835  0.00  0.00    -0.017 A 
ATOM      3  C   UNL A   1      35.351 -36.614 -28.242  0.00  0.00    -0.037 A 
ATOM      4  C   UNL A   1      34.667 -35.617 -28.910  0.00  0.00    +0.032 A 
ATOM      5  C   UNL A   1      35.155 -35.116 -30.137  0.00  0.00    -0.017 A 
ATOM      6  C   UNL A   1      36.297 -35.610 -30.735  0.00  0.00    -0.014 A 
ATOM      7  C   UNL A   1      34.241 -33.991 -30.506  0.00  0.00    +0.002 C 
ATOM      8  C   UNL A   1      34.778 -32.706 -29.819  0.00  0.00    -0.055 C 
ATOM      9  C   UNL A   1      33.815 -33.718 -31.921  0.00  0.00    -0.054 C 
ATOM     10  C   UNL A   1      32.494 -32.998 -31.677  0.00  0.00    -0.048 C 
ATOM     11  N   UNL A   1      31.918 -33.532 -30.350  0.00  0.00    +0.433 N 
ATOM     12  C   UNL A   1      30.515 -34.026 -30.629  0.00  0.00    -0.060 C 
ATOM     13  O   UNL A   1      31.812 -32.537 -29.414  0.00  0.00    -0.289 OA
ATOM     14  C   UNL A   1      32.885 -34.722 -29.947  0.00  0.00    +0.039 C 
ATOM     15  N   UNL A   1      33.472 -34.938 -28.549  0.00  0.00    -0.341 N 
ATOM     16  C   UNL A   1      32.668 -35.443 -27.453  0.00  0.00    -0.001 C 
ENDROOT
BRANCH   1  17
ATOM     17  O   UNL A   1      38.088 -37.182 -30.711  0.00  0.00    -0.412 OA
BRANCH  17  20
ATOM     18  C   UNL A   1      41.022 -35.132 -31.215  0.00  0.00    +0.003 C 
ATOM     19  N   UNL A   1      39.717 -35.734 -31.244  0.00  0.00    -0.284 N 
ATOM     20  C   UNL A   1      39.349 -36.715 -30.365  0.00  0.00    +0.405 C 
ATOM     21  O   UNL A   1      40.039 -37.111 -29.437  0.00  0.00    -0.226 OA
ATOM     22  H   UNL A   1      39.068 -35.430 -31.919  0.00  0.00    +0.000 HD
ENDBRANCH  17  20
ENDBRANCH   1  17
TORSDOF 2
ENDMDL
MODEL 5
REMARK VINA RESULT:    -6.282     21.214     22.991
REMARK INTER + INTRA:          -7.247
REMARK INTER:                  -6.991
REMARK INTRA:                  -0.256
REMARK UNBOUND:                -0.231
REMARK  Name = cpd262.pdb
REMARK  6 active torsions:
REMARK  status: ('A' for Active; 'I' for Inactive)
REMARK    1  A    between atoms: C_1  and  N_2
REMARK    2  A    between atoms: C_3  and  O_5
REMARK    3  A    between atoms: O_5  and  C_6
REMARK    4  A    between atoms: C_12  and  C_13
REMARK    5  A    between atoms: N_16  and  C_17
REMARK    6  A    between atoms: N_20  and  C_21
REMARK                            x       y       z     vdW  Elec       q    Type
REMARK                         _______ _______ _______ _____ _____    ______ ____
ROOT
ATOM      1  C   UNL A   1      54.966 -50.899 -29.779  0.00  0.00    +0.134 A 
ATOM      2  C   UNL A   1      56.157 -51.642 -29.691  0.00  0.00    -0.017 A 
ATOM      3  C   UNL A   1      56.126 -53.040 -29.747  0.00  0.00    -0.037 A 
ATOM      4  C   UNL A   1      54.906 -53.659 -29.934  0.00  0.00    +0.032 A 
ATOM      5  C   UNL A   1      53.722 -52.894 -30.016  0.00  0.00    -0.017 A 
ATOM      6  C   UNL A   1      53.726 -51.516 -29.950  0.00  0.00    -0.014 A 
ATOM      7  C   UNL A   1      52.605 -53.887 -30.100  0.00  0.00    +0.002 C 
ATOM      8  C   UNL A   1      52.205 -54.267 -28.648  0.00  0.00    -0.055 C 
ATOM      9  C   UNL A   1      51.394 -53.678 -30.965  0.00  0.00    -0.054 C 
ATOM     10  C   UNL A   1      50.969 -55.122 -31.196  0.00  0.00    -0.048 C 
ATOM     11  N   UNL A   1      52.241 -55.992 -31.132  0.00  0.00    +0.433 N 
ATOM     12  C   UNL A   1      52.309 -56.795 -32.413  0.00  0.00    -0.060 C 
ATOM     13  O   UNL A   1      52.181 -56.891 -30.099  0.00  0.00    -0.289 OA
ATOM     14  C   UNL A   1      53.431 -54.948 -31.035  0.00  0.00    +0.039 C 
ATOM     15  N   UNL A   1      54.600 -55.042 -30.050  0.00  0.00    -0.341 N 
ATOM     16  C   UNL A   1      55.675 -55.998 -30.230  0.00  0.00    -0.001 C 
ENDROOT
BRANCH   1  17
ATOM     17  O   UNL A   1      54.976 -49.491 -29.793  0.00  0.00    -0.412 OA
BRANCH  17  20
ATOM     18  C   UNL A   1      55.461 -48.119 -26.485  0.00  0.00    +0.003 C 
ATOM     19  N   UNL A   1      55.007 -48.829 -27.650  0.00  0.00    -0.284 N 
ATOM     20  C   UNL A   1      55.713 -48.829 -28.822  0.00  0.00    +0.405 C 
ATOM     21  O   UNL A   1      56.811 -48.314 -28.971  0.00  0.00    -0.226 OA
ATOM     22  H   UNL A   1      54.162 -49.330 -27.603  0.00  0.00    +0.000 HD
ENDBRANCH  17  20
ENDBRANCH   1  17
TORSDOF 2
ENDMDL
MODEL 6
REMARK VINA RESULT:    -6.172     17.408     20.084
REMARK INTER + INTRA:          -7.124
REMARK INTER:                  -6.830
REMARK INTRA:                  -0.294
REMARK UNBOUND:                -0.231
REMARK  Name = cpd262.pdb
REMARK  6 active torsions:
REMARK  status: ('A' for Active; 'I' for Inactive)
REMARK    1  A    between atoms: C_1  and  N_2
REMARK    2  A    between atoms: C_3  and  O_5
REMARK    3  A    between atoms: O_5  and  C_6
REMARK    4  A    between atoms: C_12  and  C_13
REMARK    5  A    between atoms: N_16  and  C_17
REMARK    6  A    between atoms: N_20  and  C_21
REMARK                            x       y       z     vdW  Elec       q    Type
REMARK                         _______ _______ _______ _____ _____    ______ ____
ROOT
ATOM      1  C   UNL A   1      41.268 -21.148 -38.713  0.00  0.00    +0.134 A 
ATOM      2  C   UNL A   1      41.074 -21.688 -39.996  0.00  0.00    -0.017 A 
ATOM      3  C   UNL A   1      42.125 -21.712 -40.920  0.00  0.00    -0.037 A 
ATOM      4  C   UNL A   1      43.358 -21.233 -40.522  0.00  0.00    +0.032 A 
ATOM      5  C   UNL A   1      43.529 -20.691 -39.230  0.00  0.00    -0.017 A 
ATOM      6  C   UNL A   1      42.505 -20.645 -38.305  0.00  0.00    -0.014 A 
ATOM      7  C   UNL A   1      44.933 -20.176 -39.191  0.00  0.00    +0.002 C 
ATOM      8  C   UNL A   1      44.916 -18.726 -39.748  0.00  0.00    -0.055 C 
ATOM      9  C   UNL A   1      45.806 -20.285 -37.973  0.00  0.00    -0.054 C 
ATOM     10  C   UNL A   1      47.186 -20.253 -38.620  0.00  0.00    -0.048 C 
ATOM     11  N   UNL A   1      47.045 -20.855 -40.032  0.00  0.00    +0.433 N 
ATOM     12  C   UNL A   1      48.051 -21.980 -40.150  0.00  0.00    -0.060 C 
ATOM     13  O   UNL A   1      47.356 -19.938 -41.001  0.00  0.00    -0.289 OA
ATOM     14  C   UNL A   1      45.556 -21.399 -40.086  0.00  0.00    +0.039 C 
ATOM     15  N   UNL A   1      44.580 -21.166 -41.243  0.00  0.00    -0.341 N 
ATOM     16  C   UNL A   1      44.706 -21.874 -42.502  0.00  0.00    -0.001 C 
ENDROOT
BRANCH   1  17
ATOM     17  O   UNL A   1      40.249 -21.172 -37.742  0.00  0.00    -0.412 OA
BRANCH  17  20
ATOM     18  C   UNL A   1      40.488 -22.058 -34.246  0.00  0.00    +0.003 C 
ATOM     19  N   UNL A   1      40.293 -21.403 -35.511  0.00  0.00    -0.284 N 
ATOM     20  C   UNL A   1      40.356 -22.080 -36.698  0.00  0.00    +0.405 C 
ATOM     21  O   UNL A   1      40.497 -23.290 -36.801  0.00  0.00    -0.226 OA
ATOM     22  H   UNL A   1      40.106 -20.437 -35.522  0.00  0.00    +0.000 HD
ENDBRANCH  17  20
ENDBRANCH   1  17
TORSDOF 2
ENDMDL
MODEL 7
REMARK VINA RESULT:    -6.063     19.048     20.873
REMARK INTER + INTRA:          -7.003
REMARK INTER:                  -6.956
REMARK INTRA:                  -0.047
REMARK UNBOUND:                -0.231
REMARK  Name = cpd262.pdb
REMARK  6 active torsions:
REMARK  status: ('A' for Active; 'I' for Inactive)
REMARK    1  A    between atoms: C_1  and  N_2
REMARK    2  A    between atoms: C_3  and  O_5
REMARK    3  A    between atoms: O_5  and  C_6
REMARK    4  A    between atoms: C_12  and  C_13
REMARK    5  A    between atoms: N_16  and  C_17
REMARK    6  A    between atoms: N_20  and  C_21
REMARK                            x       y       z     vdW  Elec       q    Type
REMARK                         _______ _______ _______ _____ _____    ______ ____
ROOT
ATOM      1  C   UNL A   1      44.754 -20.089 -36.253  0.00  0.00    +0.134 A 
ATOM      2  C   UNL A   1      43.460 -20.630 -36.360  0.00  0.00    -0.017 A 
ATOM      3  C   UNL A   1      42.901 -20.886 -37.617  0.00  0.00    -0.037 A 
ATOM      4  C   UNL A   1      43.668 -20.634 -38.738  0.00  0.00    +0.032 A 
ATOM      5  C   UNL A   1      44.963 -20.087 -38.608  0.00  0.00    -0.017 A 
ATOM      6  C   UNL A   1      45.531 -19.814 -37.379  0.00  0.00    -0.014 A 
ATOM      7  C   UNL A   1      45.442 -19.845 -40.005  0.00  0.00    +0.002 C 
ATOM      8  C   UNL A   1      44.940 -18.440 -40.436  0.00  0.00    -0.055 C 
ATOM      9  C   UNL A   1      46.866 -20.072 -40.428  0.00  0.00    -0.054 C 
ATOM     10  C   UNL A   1      46.672 -20.325 -41.918  0.00  0.00    -0.048 C 
ATOM     11  N   UNL A   1      45.271 -20.942 -42.102  0.00  0.00    +0.433 N 
ATOM     12  C   UNL A   1      45.441 -22.240 -42.861  0.00  0.00    -0.060 C 
ATOM     13  O   UNL A   1      44.465 -20.136 -42.862  0.00  0.00    -0.289 OA
ATOM     14  C   UNL A   1      44.752 -21.196 -40.624  0.00  0.00    +0.039 C 
ATOM     15  N   UNL A   1      43.358 -20.826 -40.111  0.00  0.00    -0.341 N 
ATOM     16  C   UNL A   1      42.182 -21.591 -40.476  0.00  0.00    -0.001 C 
ENDROOT
BRANCH   1  17
ATOM     17  O   UNL A   1      45.365 -19.884 -35.002  0.00  0.00    -0.412 OA
BRANCH  17  20
ATOM     18  C   UNL A   1      48.839 -19.008 -34.524  0.00  0.00    +0.003 C 
ATOM     19  N   UNL A   1      47.585 -19.672 -34.752  0.00  0.00    -0.284 N 
ATOM     20  C   UNL A   1      46.416 -18.981 -34.924  0.00  0.00    +0.405 C 
ATOM     21  O   UNL A   1      46.332 -17.763 -34.985  0.00  0.00    -0.226 OA
ATOM     22  H   UNL A   1      47.566 -20.655 -34.786  0.00  0.00    +0.000 HD
ENDBRANCH  17  20
ENDBRANCH   1  17
TORSDOF 2
ENDMDL
MODEL 8
REMARK VINA RESULT:    -6.043     17.599     19.564
REMARK INTER + INTRA:          -6.980
REMARK INTER:                  -6.733
REMARK INTRA:                  -0.247
REMARK UNBOUND:                -0.231
REMARK  Name = cpd262.pdb
REMARK  6 active torsions:
REMARK  status: ('A' for Active; 'I' for Inactive)
REMARK    1  A    between atoms: C_1  and  N_2
REMARK    2  A    between atoms: C_3  and  O_5
REMARK    3  A    between atoms: O_5  and  C_6
REMARK    4  A    between atoms: C_12  and  C_13
REMARK    5  A    between atoms: N_16  and  C_17
REMARK    6  A    between atoms: N_20  and  C_21
REMARK                            x       y       z     vdW  Elec       q    Type
REMARK                         _______ _______ _______ _____ _____    ______ ____
ROOT
ATOM      1  C   UNL A   1      46.576 -20.506 -39.865  0.00  0.00    +0.134 A 
ATOM      2  C   UNL A   1      47.038 -19.968 -38.650  0.00  0.00    -0.017 A 
ATOM      3  C   UNL A   1      46.147 -19.727 -37.598  0.00  0.00    -0.037 A 
ATOM      4  C   UNL A   1      44.821 -20.070 -37.772  0.00  0.00    +0.032 A 
ATOM      5  C   UNL A   1      44.378 -20.605 -39.001  0.00  0.00    -0.017 A 
ATOM      6  C   UNL A   1      45.235 -20.840 -40.058  0.00  0.00    -0.014 A 
ATOM      7  C   UNL A   1      42.894 -20.746 -38.869  0.00  0.00    +0.002 C 
ATOM      8  C   UNL A   1      42.255 -19.391 -39.280  0.00  0.00    -0.055 C 
ATOM      9  C   UNL A   1      42.132 -21.907 -39.443  0.00  0.00    -0.054 C 
ATOM     10  C   UNL A   1      40.916 -21.919 -38.525  0.00  0.00    -0.048 C 
ATOM     11  N   UNL A   1      41.363 -21.356 -37.161  0.00  0.00    +0.433 N 
ATOM     12  C   UNL A   1      40.996 -22.376 -36.105  0.00  0.00    -0.060 C 
ATOM     13  O   UNL A   1      40.694 -20.202 -36.852  0.00  0.00    -0.289 OA
ATOM     14  C   UNL A   1      42.936 -21.197 -37.294  0.00  0.00    +0.039 C 
ATOM     15  N   UNL A   1      43.729 -19.957 -36.870  0.00  0.00    -0.341 N 
ATOM     16  C   UNL A   1      43.985 -19.656 -35.475  0.00  0.00    -0.001 C 
ENDROOT
BRANCH   1  17
ATOM     17  O   UNL A   1      47.459 -20.820 -40.914  0.00  0.00    -0.412 OA
BRANCH  17  20
ATOM     18  C   UNL A   1      48.265 -23.888 -42.646  0.00  0.00    +0.003 C 
ATOM     19  N   UNL A   1      47.912 -22.545 -42.276  0.00  0.00    -0.284 N 
ATOM     20  C   UNL A   1      47.970 -22.109 -40.980  0.00  0.00    +0.405 C 
ATOM     21  O   UNL A   1      48.396 -22.769 -40.044  0.00  0.00    -0.226 OA
ATOM     22  H   UNL A   1      47.619 -21.919 -42.977  0.00  0.00    +0.000 HD
ENDBRANCH  17  20
ENDBRANCH   1  17
TORSDOF 2
ENDMDL
MODEL 9
REMARK VINA RESULT:    -6.037     19.446     20.813
REMARK INTER + INTRA:          -6.973
REMARK INTER:                  -6.737
REMARK INTRA:                  -0.237
REMARK UNBOUND:                -0.231
REMARK  Name = cpd262.pdb
REMARK  6 active torsions:
REMARK  status: ('A' for Active; 'I' for Inactive)
REMARK    1  A    between atoms: C_1  and  N_2
REMARK    2  A    between atoms: C_3  and  O_5
REMARK    3  A    between atoms: O_5  and  C_6
REMARK    4  A    between atoms: C_12  and  C_13
REMARK    5  A    between atoms: N_16  and  C_17
REMARK    6  A    between atoms: N_20  and  C_21
REMARK                            x       y       z     vdW  Elec       q    Type
REMARK                         _______ _______ _______ _____ _____    ______ ____
ROOT
ATOM      1  C   UNL A   1      46.668 -20.675 -40.137  0.00  0.00    +0.134 A 
ATOM      2  C   UNL A   1      45.344 -21.145 -40.203  0.00  0.00    -0.017 A 
ATOM      3  C   UNL A   1      44.465 -20.938 -39.134  0.00  0.00    -0.037 A 
ATOM      4  C   UNL A   1      44.921 -20.227 -38.040  0.00  0.00    +0.032 A 
ATOM      5  C   UNL A   1      46.256 -19.768 -37.994  0.00  0.00    -0.017 A 
ATOM      6  C   UNL A   1      47.144 -19.972 -39.030  0.00  0.00    -0.014 A 
ATOM      7  C   UNL A   1      46.424 -19.154 -36.640  0.00  0.00    +0.002 C 
ATOM      8  C   UNL A   1      46.827 -20.287 -35.657  0.00  0.00    -0.055 C 
ATOM      9  C   UNL A   1      47.236 -17.911 -36.406  0.00  0.00    -0.054 C 
ATOM     10  C   UNL A   1      46.574 -17.385 -35.138  0.00  0.00    -0.048 C 
ATOM     11  N   UNL A   1      45.105 -17.851 -35.160  0.00  0.00    +0.433 N 
ATOM     12  C   UNL A   1      44.235 -16.622 -34.997  0.00  0.00    -0.060 C 
ATOM     13  O   UNL A   1      44.827 -18.680 -34.105  0.00  0.00    -0.289 OA
ATOM     14  C   UNL A   1      44.918 -18.511 -36.590  0.00  0.00    +0.039 C 
ATOM     15  N   UNL A   1      44.239 -19.859 -36.850  0.00  0.00    -0.341 N 
ATOM     16  C   UNL A   1      42.800 -20.015 -36.775  0.00  0.00    -0.001 C 
ENDROOT
BRANCH   1  17
ATOM     17  O   UNL A   1      47.552 -20.812 -41.224  0.00  0.00    -0.412 OA
BRANCH  17  20
ATOM     18  C   UNL A   1      48.270 -24.053 -42.652  0.00  0.00    +0.003 C 
ATOM     19  N   UNL A   1      47.789 -22.730 -42.363  0.00  0.00    -0.284 N 
ATOM     20  C   UNL A   1      48.287 -21.984 -41.331  0.00  0.00    +0.405 C 
ATOM     21  O   UNL A   1      49.224 -22.319 -40.621  0.00  0.00    -0.226 OA
ATOM     22  H   UNL A   1      47.077 -22.348 -42.927  0.00  0.00    +0.000 HD
ENDBRANCH  17  20
ENDBRANCH   1  17
TORSDOF 2
ENDMDL
MODEL 10
REMARK VINA RESULT:    -5.984      3.701      7.795
REMARK INTER + INTRA:          -6.914
REMARK INTER:                  -6.695
REMARK INTRA:                  -0.219
REMARK UNBOUND:                -0.231
REMARK  Name = cpd262.pdb
REMARK  6 active torsions:
REMARK  status: ('A' for Active; 'I' for Inactive)
REMARK    1  A    between atoms: C_1  and  N_2
REMARK    2  A    between atoms: C_3  and  O_5
REMARK    3  A    between atoms: O_5  and  C_6
REMARK    4  A    between atoms: C_12  and  C_13
REMARK    5  A    between atoms: N_16  and  C_17
REMARK    6  A    between atoms: N_20  and  C_21
REMARK                            x       y       z     vdW  Elec       q    Type
REMARK                         _______ _______ _______ _____ _____    ______ ____
ROOT
ATOM      1  C   UNL A   1      33.189 -32.818 -29.514  0.00  0.00    +0.134 A 
ATOM      2  C   UNL A   1      32.592 -33.715 -28.609  0.00  0.00    -0.017 A 
ATOM      3  C   UNL A   1      33.076 -35.022 -28.485  0.00  0.00    -0.037 A 
ATOM      4  C   UNL A   1      34.174 -35.388 -29.239  0.00  0.00    +0.032 A 
ATOM      5  C   UNL A   1      34.755 -34.473 -30.144  0.00  0.00    -0.017 A 
ATOM      6  C   UNL A   1      34.288 -33.183 -30.293  0.00  0.00    -0.014 A 
ATOM      7  C   UNL A   1      35.827 -35.235 -30.856  0.00  0.00    +0.002 C 
ATOM      8  C   UNL A   1      35.169 -35.948 -32.070  0.00  0.00    -0.055 C 
ATOM      9  C   UNL A   1      37.148 -34.625 -31.230  0.00  0.00    -0.054 C 
ATOM     10  C   UNL A   1      38.021 -35.873 -31.287  0.00  0.00    -0.048 C 
ATOM     11  N   UNL A   1      37.429 -36.894 -30.296  0.00  0.00    +0.433 N 
ATOM     12  C   UNL A   1      38.536 -37.307 -29.350  0.00  0.00    -0.060 C 
ATOM     13  O   UNL A   1      37.008 -38.029 -30.938  0.00  0.00    -0.289 OA
ATOM     14  C   UNL A   1      36.285 -36.096 -29.540  0.00  0.00    +0.039 C 
ATOM     15  N   UNL A   1      34.871 -36.625 -29.285  0.00  0.00    -0.341 N 
ATOM     16  C   UNL A   1      34.602 -37.632 -28.277  0.00  0.00    -0.001 C 
ENDROOT
BRANCH   1  17
ATOM     17  O   UNL A   1      32.766 -31.479 -29.610  0.00  0.00    -0.412 OA
BRANCH  17  20
ATOM     18  C   UNL A   1      29.588 -30.262 -28.395  0.00  0.00    +0.003 C 
ATOM     19  N   UNL A   1      30.975 -30.564 -28.616  0.00  0.00    -0.284 N 
ATOM     20  C   UNL A   1      31.407 -31.226 -29.732  0.00  0.00    +0.405 C 
ATOM     21  O   UNL A   1      30.692 -31.544 -30.671  0.00  0.00    -0.226 OA
ATOM     22  H   UNL A   1      31.636 -30.286 -27.941  0.00  0.00    +0.000 HD
ENDBRANCH  17  20
ENDBRANCH   1  17
TORSDOF 2
ENDMDL
MODEL 11
REMARK VINA RESULT:    -5.947      2.647      3.689
REMARK INTER + INTRA:          -6.874
REMARK INTER:                  -6.607
REMARK INTRA:                  -0.267
REMARK UNBOUND:                -0.231
REMARK  Name = cpd262.pdb
REMARK  6 active torsions:
REMARK  status: ('A' for Active; 'I' for Inactive)
REMARK    1  A    between atoms: C_1  and  N_2
REMARK    2  A    between atoms: C_3  and  O_5
REMARK    3  A    between atoms: O_5  and  C_6
REMARK    4  A    between atoms: C_12  and  C_13
REMARK    5  A    between atoms: N_16  and  C_17
REMARK    6  A    between atoms: N_20  and  C_21
REMARK                            x       y       z     vdW  Elec       q    Type
REMARK                         _______ _______ _______ _____ _____    ______ ____
ROOT
ATOM      1  C   UNL A   1      37.227 -36.589 -30.443  0.00  0.00    +0.134 A 
ATOM      2  C   UNL A   1      36.004 -35.895 -30.462  0.00  0.00    -0.017 A 
ATOM      3  C   UNL A   1      34.798 -36.581 -30.284  0.00  0.00    -0.037 A 
ATOM      4  C   UNL A   1      34.847 -37.941 -30.048  0.00  0.00    +0.032 A 
ATOM      5  C   UNL A   1      36.085 -38.619 -30.037  0.00  0.00    -0.017 A 
ATOM      6  C   UNL A   1      37.288 -37.966 -30.223  0.00  0.00    -0.014 A 
ATOM      7  C   UNL A   1      35.751 -40.068 -29.871  0.00  0.00    +0.002 C 
ATOM      8  C   UNL A   1      35.493 -40.655 -31.286  0.00  0.00    -0.055 C 
ATOM      9  C   UNL A   1      36.576 -41.002 -29.032  0.00  0.00    -0.054 C 
ATOM     10  C   UNL A   1      35.529 -42.050 -28.677  0.00  0.00    -0.048 C 
ATOM     11  N   UNL A   1      34.158 -41.344 -28.660  0.00  0.00    +0.433 N 
ATOM     12  C   UNL A   1      33.522 -41.614 -27.314  0.00  0.00    -0.060 C 
ATOM     13  O   UNL A   1      33.318 -41.860 -29.611  0.00  0.00    -0.289 OA
ATOM     14  C   UNL A   1      34.502 -39.806 -28.843  0.00  0.00    +0.039 C 
ATOM     15  N   UNL A   1      33.789 -38.859 -29.812  0.00  0.00    -0.341 N 
ATOM     16  C   UNL A   1      32.455 -38.357 -29.545  0.00  0.00    -0.001 C 
ENDROOT
BRANCH   1  17
ATOM     17  O   UNL A   1      38.458 -35.916 -30.552  0.00  0.00    -0.412 OA
BRANCH  17  20
ATOM     18  C   UNL A   1      41.346 -36.316 -32.688  0.00  0.00    +0.003 C 
ATOM     19  N   UNL A   1      40.394 -36.322 -31.612  0.00  0.00    -0.284 N 
ATOM     20  C   UNL A   1      39.099 -35.913 -31.783  0.00  0.00    +0.405 C 
ATOM     21  O   UNL A   1      38.609 -35.592 -32.855  0.00  0.00    -0.226 OA
ATOM     22  H   UNL A   1      40.683 -36.630 -30.722  0.00  0.00    +0.000 HD
ENDBRANCH  17  20
ENDBRANCH   1  17
TORSDOF 2
ENDMDL
MODEL 12
REMARK VINA RESULT:    -5.784     18.107     19.943
REMARK INTER + INTRA:          -6.691
REMARK INTER:                  -6.480
REMARK INTRA:                  -0.211
REMARK UNBOUND:                -0.231
REMARK  Name = cpd262.pdb
REMARK  6 active torsions:
REMARK  status: ('A' for Active; 'I' for Inactive)
REMARK    1  A    between atoms: C_1  and  N_2
REMARK    2  A    between atoms: C_3  and  O_5
REMARK    3  A    between atoms: O_5  and  C_6
REMARK    4  A    between atoms: C_12  and  C_13
REMARK    5  A    between atoms: N_16  and  C_17
REMARK    6  A    between atoms: N_20  and  C_21
REMARK                            x       y       z     vdW  Elec       q    Type
REMARK                         _______ _______ _______ _____ _____    ______ ____
ROOT
ATOM      1  C   UNL A   1      44.678 -20.551 -41.569  0.00  0.00    +0.134 A 
ATOM      2  C   UNL A   1      44.793 -19.153 -41.478  0.00  0.00    -0.017 A 
ATOM      3  C   UNL A   1      43.965 -18.429 -40.613  0.00  0.00    -0.037 A 
ATOM      4  C   UNL A   1      43.068 -19.128 -39.829  0.00  0.00    +0.032 A 
ATOM      5  C   UNL A   1      42.966 -20.532 -39.940  0.00  0.00    -0.017 A 
ATOM      6  C   UNL A   1      43.764 -21.266 -40.795  0.00  0.00    -0.014 A 
ATOM      7  C   UNL A   1      41.836 -20.927 -39.043  0.00  0.00    +0.002 C 
ATOM      8  C   UNL A   1      40.523 -20.812 -39.864  0.00  0.00    -0.055 C 
ATOM      9  C   UNL A   1      41.856 -22.180 -38.213  0.00  0.00    -0.054 C 
ATOM     10  C   UNL A   1      40.899 -21.784 -37.095  0.00  0.00    -0.048 C 
ATOM     11  N   UNL A   1      40.994 -20.254 -36.929  0.00  0.00    +0.433 N 
ATOM     12  C   UNL A   1      41.316 -19.972 -35.477  0.00  0.00    -0.060 C 
ATOM     13  O   UNL A   1      39.796 -19.646 -37.198  0.00  0.00    -0.289 OA
ATOM     14  C   UNL A   1      42.186 -19.824 -37.883  0.00  0.00    +0.039 C 
ATOM     15  N   UNL A   1      42.142 -18.649 -38.864  0.00  0.00    -0.341 N 
ATOM     16  C   UNL A   1      42.230 -17.274 -38.412  0.00  0.00    -0.001 C 
ENDROOT
BRANCH   1  17
ATOM     17  O   UNL A   1      45.544 -21.310 -42.380  0.00  0.00    -0.412 OA
BRANCH  17  20
ATOM     18  C   UNL A   1      48.223 -23.730 -42.222  0.00  0.00    +0.003 C 
ATOM     19  N   UNL A   1      47.137 -22.872 -42.610  0.00  0.00    -0.284 N 
ATOM     20  C   UNL A   1      46.660 -21.887 -41.791  0.00  0.00    +0.405 C 
ATOM     21  O   UNL A   1      47.147 -21.586 -40.711  0.00  0.00    -0.226 OA
ATOM     22  H   UNL A   1      46.724 -22.998 -43.495  0.00  0.00    +0.000 HD
ENDBRANCH  17  20
ENDBRANCH   1  17
TORSDOF 2
ENDMDL
MODEL 13
REMARK VINA RESULT:    -5.777      3.648      7.132
REMARK INTER + INTRA:          -6.683
REMARK INTER:                  -6.434
REMARK INTRA:                  -0.249
REMARK UNBOUND:                -0.231
REMARK  Name = cpd262.pdb
REMARK  6 active torsions:
REMARK  status: ('A' for Active; 'I' for Inactive)
REMARK    1  A    between atoms: C_1  and  N_2
REMARK    2  A    between atoms: C_3  and  O_5
REMARK    3  A    between atoms: O_5  and  C_6
REMARK    4  A    between atoms: C_12  and  C_13
REMARK    5  A    between atoms: N_16  and  C_17
REMARK    6  A    between atoms: N_20  and  C_21
REMARK                            x       y       z     vdW  Elec       q    Type
REMARK                         _______ _______ _______ _____ _____    ______ ____
ROOT
ATOM      1  C   UNL A   1      33.616 -33.194 -30.583  0.00  0.00    +0.134 A 
ATOM      2  C   UNL A   1      33.019 -33.722 -31.741  0.00  0.00    -0.017 A 
ATOM      3  C   UNL A   1      33.233 -35.056 -32.103  0.00  0.00    -0.037 A 
ATOM      4  C   UNL A   1      34.007 -35.843 -31.273  0.00  0.00    +0.032 A 
ATOM      5  C   UNL A   1      34.601 -35.291 -30.117  0.00  0.00    -0.017 A 
ATOM      6  C   UNL A   1      34.414 -33.975 -29.746  0.00  0.00    -0.014 A 
ATOM      7  C   UNL A   1      35.445 -36.382 -29.536  0.00  0.00    +0.002 C 
ATOM      8  C   UNL A   1      36.835 -36.318 -30.226  0.00  0.00    -0.055 C 
ATOM      9  C   UNL A   1      35.577 -36.608 -28.057  0.00  0.00    -0.054 C 
ATOM     10  C   UNL A   1      35.932 -38.090 -28.036  0.00  0.00    -0.048 C 
ATOM     11  N   UNL A   1      35.284 -38.735 -29.277  0.00  0.00    +0.433 N 
ATOM     12  C   UNL A   1      34.438 -39.895 -28.799  0.00  0.00    -0.060 C 
ATOM     13  O   UNL A   1      36.230 -39.253 -30.123  0.00  0.00    -0.289 OA
ATOM     14  C   UNL A   1      34.393 -37.583 -29.904  0.00  0.00    +0.039 C 
ATOM     15  N   UNL A   1      34.356 -37.215 -31.391  0.00  0.00    -0.341 N 
ATOM     16  C   UNL A   1      33.675 -38.044 -32.366  0.00  0.00    -0.001 C 
ENDROOT
BRANCH   1  17
ATOM     17  O   UNL A   1      33.363 -31.875 -30.160  0.00  0.00    -0.412 OA
BRANCH  17  20
ATOM     18  C   UNL A   1      30.462 -29.839 -30.866  0.00  0.00    +0.003 C 
ATOM     19  N   UNL A   1      31.726 -30.522 -30.883  0.00  0.00    -0.284 N 
ATOM     20  C   UNL A   1      32.045 -31.488 -29.968  0.00  0.00    +0.405 C 
ATOM     21  O   UNL A   1      31.279 -31.918 -29.117  0.00  0.00    -0.226 OA
ATOM     22  H   UNL A   1      32.384 -30.288 -31.577  0.00  0.00    +0.000 HD
ENDBRANCH  17  20
ENDBRANCH   1  17
TORSDOF 2
ENDMDL
MODEL 14
REMARK VINA RESULT:    -5.711     24.592     26.835
REMARK INTER + INTRA:          -6.609
REMARK INTER:                  -6.480
REMARK INTRA:                  -0.130
REMARK UNBOUND:                -0.231
REMARK  Name = cpd262.pdb
REMARK  6 active torsions:
REMARK  status: ('A' for Active; 'I' for Inactive)
REMARK    1  A    between atoms: C_1  and  N_2
REMARK    2  A    between atoms: C_3  and  O_5
REMARK    3  A    between atoms: O_5  and  C_6
REMARK    4  A    between atoms: C_12  and  C_13
REMARK    5  A    between atoms: N_16  and  C_17
REMARK    6  A    between atoms: N_20  and  C_21
REMARK                            x       y       z     vdW  Elec       q    Type
REMARK                         _______ _______ _______ _____ _____    ______ ____
ROOT
ATOM      1  C   UNL A   1      47.326 -32.303 -54.768  0.00  0.00    +0.134 A 
ATOM      2  C   UNL A   1      47.229 -32.640 -53.406  0.00  0.00    -0.017 A 
ATOM      3  C   UNL A   1      46.596 -33.824 -53.013  0.00  0.00    -0.037 A 
ATOM      4  C   UNL A   1      46.112 -34.665 -53.997  0.00  0.00    +0.032 A 
ATOM      5  C   UNL A   1      46.217 -34.305 -55.358  0.00  0.00    -0.017 A 
ATOM      6  C   UNL A   1      46.825 -33.136 -55.769  0.00  0.00    -0.014 A 
ATOM      7  C   UNL A   1      45.498 -35.377 -56.115  0.00  0.00    +0.002 C 
ATOM      8  C   UNL A   1      43.996 -34.984 -56.173  0.00  0.00    -0.055 C 
ATOM      9  C   UNL A   1      45.979 -35.900 -57.439  0.00  0.00    -0.054 C 
ATOM     10  C   UNL A   1      45.359 -37.292 -57.426  0.00  0.00    -0.048 C 
ATOM     11  N   UNL A   1      45.243 -37.730 -55.953  0.00  0.00    +0.433 N 
ATOM     12  C   UNL A   1      45.942 -39.067 -55.819  0.00  0.00    -0.060 C 
ATOM     13  O   UNL A   1      43.937 -37.924 -55.589  0.00  0.00    -0.289 OA
ATOM     14  C   UNL A   1      45.997 -36.596 -55.141  0.00  0.00    +0.039 C 
ATOM     15  N   UNL A   1      45.460 -35.921 -53.875  0.00  0.00    -0.341 N 
ATOM     16  C   UNL A   1      45.452 -36.599 -52.594  0.00  0.00    -0.001 C 
ENDROOT
BRANCH   1  17
ATOM     17  O   UNL A   1      48.016 -31.152 -55.195  0.00  0.00    -0.412 OA
BRANCH  17  20
ATOM     18  C   UNL A   1      47.068 -28.110 -53.490  0.00  0.00    +0.003 C 
ATOM     19  N   UNL A   1      47.115 -29.323 -54.260  0.00  0.00    -0.284 N 
ATOM     20  C   UNL A   1      48.219 -30.130 -54.279  0.00  0.00    +0.405 C 
ATOM     21  O   UNL A   1      49.219 -29.955 -53.598  0.00  0.00    -0.226 OA
ATOM     22  H   UNL A   1      46.327 -29.581 -54.790  0.00  0.00    +0.000 HD
ENDBRANCH  17  20
ENDBRANCH   1  17
TORSDOF 2
ENDMDL
MODEL 15
REMARK VINA RESULT:    -5.689     19.456     21.841
REMARK INTER + INTRA:          -6.585
REMARK INTER:                  -6.305
REMARK INTRA:                  -0.280
REMARK UNBOUND:                -0.231
REMARK  Name = cpd262.pdb
REMARK  6 active torsions:
REMARK  status: ('A' for Active; 'I' for Inactive)
REMARK    1  A    between atoms: C_1  and  N_2
REMARK    2  A    between atoms: C_3  and  O_5
REMARK    3  A    between atoms: O_5  and  C_6
REMARK    4  A    between atoms: C_12  and  C_13
REMARK    5  A    between atoms: N_16  and  C_17
REMARK    6  A    between atoms: N_20  and  C_21
REMARK                            x       y       z     vdW  Elec       q    Type
REMARK                         _______ _______ _______ _____ _____    ______ ____
ROOT
ATOM      1  C   UNL A   1      46.289 -18.320 -35.517  0.00  0.00    +0.134 A 
ATOM      2  C   UNL A   1      46.956 -17.170 -35.975  0.00  0.00    -0.017 A 
ATOM      3  C   UNL A   1      47.205 -16.993 -37.341  0.00  0.00    -0.037 A 
ATOM      4  C   UNL A   1      46.744 -17.954 -38.220  0.00  0.00    +0.032 A 
ATOM      5  C   UNL A   1      46.081 -19.103 -37.737  0.00  0.00    -0.017 A 
ATOM      6  C   UNL A   1      45.834 -19.305 -36.394  0.00  0.00    -0.014 A 
ATOM      7  C   UNL A   1      45.832 -19.960 -38.938  0.00  0.00    +0.002 C 
ATOM      8  C   UNL A   1      47.096 -20.836 -39.159  0.00  0.00    -0.055 C 
ATOM      9  C   UNL A   1      44.573 -20.759 -39.121  0.00  0.00    -0.054 C 
ATOM     10  C   UNL A   1      44.535 -20.868 -40.641  0.00  0.00    -0.048 C 
ATOM     11  N   UNL A   1      45.236 -19.617 -41.209  0.00  0.00    +0.433 N 
ATOM     12  C   UNL A   1      44.275 -18.955 -42.173  0.00  0.00    -0.060 C 
ATOM     13  O   UNL A   1      46.354 -19.953 -41.927  0.00  0.00    -0.289 OA
ATOM     14  C   UNL A   1      45.510 -18.705 -39.941  0.00  0.00    +0.039 C 
ATOM     15  N   UNL A   1      46.839 -18.006 -39.636  0.00  0.00    -0.341 N 
ATOM     16  C   UNL A   1      47.267 -16.830 -40.367  0.00  0.00    -0.001 C 
ENDROOT
BRANCH   1  17
ATOM     17  O   UNL A   1      45.966 -18.491 -34.157  0.00  0.00    -0.412 OA
BRANCH  17  20
ATOM     18  C   UNL A   1      42.701 -19.281 -32.825  0.00  0.00    +0.003 C 
ATOM     19  N   UNL A   1      44.078 -19.278 -33.236  0.00  0.00    -0.284 N 
ATOM     20  C   UNL A   1      44.685 -18.160 -33.739  0.00  0.00    +0.405 C 
ATOM     21  O   UNL A   1      44.161 -17.058 -33.811  0.00  0.00    -0.226 OA
ATOM     22  H   UNL A   1      44.601 -20.108 -33.152  0.00  0.00    +0.000 HD
ENDBRANCH  17  20
ENDBRANCH   1  17
TORSDOF 2
ENDMDL
MODEL 16
REMARK VINA RESULT:    -5.538     24.823     26.890
REMARK INTER + INTRA:          -6.416
REMARK INTER:                  -6.184
REMARK INTRA:                  -0.233
REMARK UNBOUND:                -0.231
REMARK  Name = cpd262.pdb
REMARK  6 active torsions:
REMARK  status: ('A' for Active; 'I' for Inactive)
REMARK    1  A    between atoms: C_1  and  N_2
REMARK    2  A    between atoms: C_3  and  O_5
REMARK    3  A    between atoms: O_5  and  C_6
REMARK    4  A    between atoms: C_12  and  C_13
REMARK    5  A    between atoms: N_16  and  C_17
REMARK    6  A    between atoms: N_20  and  C_21
REMARK                            x       y       z     vdW  Elec       q    Type
REMARK                         _______ _______ _______ _____ _____    ______ ____
ROOT
ATOM      1  C   UNL A   1      47.354 -33.603 -53.573  0.00  0.00    +0.134 A 
ATOM      2  C   UNL A   1      46.282 -33.976 -52.742  0.00  0.00    -0.017 A 
ATOM      3  C   UNL A   1      45.479 -35.073 -53.073  0.00  0.00    -0.037 A 
ATOM      4  C   UNL A   1      45.795 -35.797 -54.206  0.00  0.00    +0.032 A 
ATOM      5  C   UNL A   1      46.873 -35.402 -55.028  0.00  0.00    -0.017 A 
ATOM      6  C   UNL A   1      47.671 -34.316 -54.729  0.00  0.00    -0.014 A 
ATOM      7  C   UNL A   1      46.847 -36.330 -56.202  0.00  0.00    +0.002 C 
ATOM      8  C   UNL A   1      45.880 -35.726 -57.256  0.00  0.00    -0.055 C 
ATOM      9  C   UNL A   1      48.096 -36.863 -56.845  0.00  0.00    -0.054 C 
ATOM     10  C   UNL A   1      47.561 -38.152 -57.457  0.00  0.00    -0.048 C 
ATOM     11  N   UNL A   1      46.389 -38.628 -56.575  0.00  0.00    +0.433 N 
ATOM     12  C   UNL A   1      46.681 -40.054 -56.160  0.00  0.00    -0.060 C 
ATOM     13  O   UNL A   1      45.212 -38.649 -57.276  0.00  0.00    -0.289 OA
ATOM     14  C   UNL A   1      46.404 -37.645 -55.330  0.00  0.00    +0.039 C 
ATOM     15  N   UNL A   1      45.169 -36.952 -54.748  0.00  0.00    -0.341 N 
ATOM     16  C   UNL A   1      44.192 -37.672 -53.954  0.00  0.00    -0.001 C 
ENDROOT
BRANCH   1  17
ATOM     17  O   UNL A   1      48.218 -32.546 -53.230  0.00  0.00    -0.412 OA
BRANCH  17  20
ATOM     18  C   UNL A   1      47.502 -29.300 -54.649  0.00  0.00    +0.003 C 
ATOM     19  N   UNL A   1      47.844 -30.676 -54.412  0.00  0.00    -0.284 N 
ATOM     20  C   UNL A   1      47.698 -31.260 -53.183  0.00  0.00    +0.405 C 
ATOM     21  O   UNL A   1      47.197 -30.715 -52.210  0.00  0.00    -0.226 OA
ATOM     22  H   UNL A   1      48.195 -31.215 -55.157  0.00  0.00    +0.000 HD
ENDBRANCH  17  20
ENDBRANCH   1  17
TORSDOF 2
ENDMDL
MODEL 17
REMARK VINA RESULT:    -5.421     19.342     20.857
REMARK INTER + INTRA:          -6.285
REMARK INTER:                  -6.068
REMARK INTRA:                  -0.218
REMARK UNBOUND:                -0.231
REMARK  Name = cpd262.pdb
REMARK  6 active torsions:
REMARK  status: ('A' for Active; 'I' for Inactive)
REMARK    1  A    between atoms: C_1  and  N_2
REMARK    2  A    between atoms: C_3  and  O_5
REMARK    3  A    between atoms: O_5  and  C_6
REMARK    4  A    between atoms: C_12  and  C_13
REMARK    5  A    between atoms: N_16  and  C_17
REMARK    6  A    between atoms: N_20  and  C_21
REMARK                            x       y       z     vdW  Elec       q    Type
REMARK                         _______ _______ _______ _____ _____    ______ ____
ROOT
ATOM      1  C   UNL A   1      46.294 -20.160 -40.645  0.00  0.00    +0.134 A 
ATOM      2  C   UNL A   1      45.467 -19.182 -41.226  0.00  0.00    -0.017 A 
ATOM      3  C   UNL A   1      44.568 -18.456 -40.437  0.00  0.00    -0.037 A 
ATOM      4  C   UNL A   1      44.548 -18.697 -39.077  0.00  0.00    +0.032 A 
ATOM      5  C   UNL A   1      45.385 -19.686 -38.516  0.00  0.00    -0.017 A 
ATOM      6  C   UNL A   1      46.271 -20.423 -39.275  0.00  0.00    -0.014 A 
ATOM      7  C   UNL A   1      45.019 -19.749 -37.066  0.00  0.00    +0.002 C 
ATOM      8  C   UNL A   1      43.830 -20.739 -36.925  0.00  0.00    -0.055 C 
ATOM      9  C   UNL A   1      46.036 -19.955 -35.979  0.00  0.00    -0.054 C 
ATOM     10  C   UNL A   1      45.314 -19.308 -34.803  0.00  0.00    -0.048 C 
ATOM     11  N   UNL A   1      44.400 -18.206 -35.374  0.00  0.00    +0.433 N 
ATOM     12  C   UNL A   1      44.742 -16.916 -34.660  0.00  0.00    -0.060 C 
ATOM     13  O   UNL A   1      43.080 -18.468 -35.117  0.00  0.00    -0.289 OA
ATOM     14  C   UNL A   1      44.776 -18.136 -36.913  0.00  0.00    +0.039 C 
ATOM     15  N   UNL A   1      43.763 -18.091 -38.060  0.00  0.00    -0.341 N 
ATOM     16  C   UNL A   1      43.005 -16.893 -38.363  0.00  0.00    -0.001 C 
ENDROOT
BRANCH   1  17
ATOM     17  O   UNL A   1      47.254 -20.857 -41.404  0.00  0.00    -0.412 OA
BRANCH  17  20
ATOM     18  C   UNL A   1      48.225 -24.144 -42.549  0.00  0.00    +0.003 C 
ATOM     19  N   UNL A   1      48.177 -22.795 -42.056  0.00  0.00    -0.284 N 
ATOM     20  C   UNL A   1      46.998 -22.181 -41.731  0.00  0.00    +0.405 C 
ATOM     21  O   UNL A   1      45.904 -22.726 -41.745  0.00  0.00    -0.226 OA
ATOM     22  H   UNL A   1      49.019 -22.297 -41.948  0.00  0.00    +0.000 HD
ENDBRANCH  17  20
ENDBRANCH   1  17
TORSDOF 2
ENDMDL
MODEL 18
REMARK VINA RESULT:    -5.417     24.404     26.710
REMARK INTER + INTRA:          -6.282
REMARK INTER:                  -5.997
REMARK INTRA:                  -0.285
REMARK UNBOUND:                -0.231
REMARK  Name = cpd262.pdb
REMARK  6 active torsions:
REMARK  status: ('A' for Active; 'I' for Inactive)
REMARK    1  A    between atoms: C_1  and  N_2
REMARK    2  A    between atoms: C_3  and  O_5
REMARK    3  A    between atoms: O_5  and  C_6
REMARK    4  A    between atoms: C_12  and  C_13
REMARK    5  A    between atoms: N_16  and  C_17
REMARK    6  A    between atoms: N_20  and  C_21
REMARK                            x       y       z     vdW  Elec       q    Type
REMARK                         _______ _______ _______ _____ _____    ______ ____
ROOT
ATOM      1  C   UNL A   1      47.579 -31.501 -54.154  0.00  0.00    +0.134 A 
ATOM      2  C   UNL A   1      48.842 -32.093 -53.980  0.00  0.00    -0.017 A 
ATOM      3  C   UNL A   1      48.961 -33.481 -53.848  0.00  0.00    -0.037 A 
ATOM      4  C   UNL A   1      47.815 -34.247 -53.937  0.00  0.00    +0.032 A 
ATOM      5  C   UNL A   1      46.556 -33.631 -54.108  0.00  0.00    -0.017 A 
ATOM      6  C   UNL A   1      46.413 -32.263 -54.228  0.00  0.00    -0.014 A 
ATOM      7  C   UNL A   1      45.552 -34.738 -54.046  0.00  0.00    +0.002 C 
ATOM      8  C   UNL A   1      45.190 -34.961 -52.552  0.00  0.00    -0.055 C 
ATOM      9  C   UNL A   1      44.329 -34.778 -54.918  0.00  0.00    -0.054 C 
ATOM     10  C   UNL A   1      44.062 -36.278 -54.949  0.00  0.00    -0.048 C 
ATOM     11  N   UNL A   1      45.419 -36.990 -54.783  0.00  0.00    +0.433 N 
ATOM     12  C   UNL A   1      45.577 -37.946 -55.946  0.00  0.00    -0.060 C 
ATOM     13  O   UNL A   1      45.452 -37.743 -53.639  0.00  0.00    -0.289 OA
ATOM     14  C   UNL A   1      46.490 -35.822 -54.840  0.00  0.00    +0.039 C 
ATOM     15  N   UNL A   1      47.659 -35.658 -53.864  0.00  0.00    -0.341 N 
ATOM     16  C   UNL A   1      48.831 -36.509 -53.926  0.00  0.00    -0.001 C 
ENDROOT
BRANCH   1  17
ATOM     17  O   UNL A   1      47.438 -30.115 -54.356  0.00  0.00    -0.412 OA
BRANCH  17  20
ATOM     18  C   UNL A   1      45.636 -28.113 -56.767  0.00  0.00    +0.003 C 
ATOM     19  N   UNL A   1      46.205 -28.697 -55.583  0.00  0.00    -0.284 N 
ATOM     20  C   UNL A   1      47.174 -29.661 -55.641  0.00  0.00    +0.405 C 
ATOM     21  O   UNL A   1      47.703 -30.053 -56.671  0.00  0.00    -0.226 OA
ATOM     22  H   UNL A   1      45.887 -28.394 -54.702  0.00  0.00    +0.000 HD
ENDBRANCH  17  20
ENDBRANCH   1  17
TORSDOF 2
ENDMDL
MODEL 19
REMARK VINA RESULT:    -5.358      3.427      6.848
REMARK INTER + INTRA:          -6.215
REMARK INTER:                  -5.947
REMARK INTRA:                  -0.268
REMARK UNBOUND:                -0.231
REMARK  Name = cpd262.pdb
REMARK  6 active torsions:
REMARK  status: ('A' for Active; 'I' for Inactive)
REMARK    1  A    between atoms: C_1  and  N_2
REMARK    2  A    between atoms: C_3  and  O_5
REMARK    3  A    between atoms: O_5  and  C_6
REMARK    4  A    between atoms: C_12  and  C_13
REMARK    5  A    between atoms: N_16  and  C_17
REMARK    6  A    between atoms: N_20  and  C_21
REMARK                            x       y       z     vdW  Elec       q    Type
REMARK                         _______ _______ _______ _____ _____    ______ ____
ROOT
ATOM      1  C   UNL A   1      33.932 -34.019 -31.033  0.00  0.00    +0.134 A 
ATOM      2  C   UNL A   1      35.298 -33.755 -31.241  0.00  0.00    -0.017 A 
ATOM      3  C   UNL A   1      36.271 -34.629 -30.744  0.00  0.00    -0.037 A 
ATOM      4  C   UNL A   1      35.852 -35.769 -30.087  0.00  0.00    +0.032 A 
ATOM      5  C   UNL A   1      34.476 -36.012 -29.886  0.00  0.00    -0.017 A 
ATOM      6  C   UNL A   1      33.498 -35.159 -30.355  0.00  0.00    -0.014 A 
ATOM      7  C   UNL A   1      34.403 -37.255 -29.055  0.00  0.00    +0.002 C 
ATOM      8  C   UNL A   1      34.499 -36.828 -27.564  0.00  0.00    -0.055 C 
ATOM      9  C   UNL A   1      33.350 -38.308 -29.256  0.00  0.00    -0.054 C 
ATOM     10  C   UNL A   1      34.071 -39.528 -28.697  0.00  0.00    -0.048 C 
ATOM     11  N   UNL A   1      35.581 -39.309 -28.914  0.00  0.00    +0.433 N 
ATOM     12  C   UNL A   1      36.112 -40.511 -29.666  0.00  0.00    -0.060 C 
ATOM     13  O   UNL A   1      36.255 -39.254 -27.722  0.00  0.00    -0.289 OA
ATOM     14  C   UNL A   1      35.670 -37.989 -29.789  0.00  0.00    +0.039 C 
ATOM     15  N   UNL A   1      36.620 -36.820 -29.515  0.00  0.00    -0.341 N 
ATOM     16  C   UNL A   1      38.038 -36.905 -29.802  0.00  0.00    -0.001 C 
ENDROOT
BRANCH   1  17
ATOM     17  O   UNL A   1      32.931 -33.193 -31.579  0.00  0.00    -0.412 OA
BRANCH  17  20
ATOM     18  C   UNL A   1      30.012 -31.417 -30.403  0.00  0.00    +0.003 C 
ATOM     19  N   UNL A   1      30.940 -32.316 -31.033  0.00  0.00    -0.284 N 
ATOM     20  C   UNL A   1      32.275 -32.309 -30.735  0.00  0.00    +0.405 C 
ATOM     21  O   UNL A   1      32.789 -31.619 -29.867  0.00  0.00    -0.226 OA
ATOM     22  H   UNL A   1      30.604 -32.957 -31.700  0.00  0.00    +0.000 HD
ENDBRANCH  17  20
ENDBRANCH   1  17
TORSDOF 2
ENDMDL
MODEL 20
REMARK VINA RESULT:    -5.322     16.469     18.255
REMARK INTER + INTRA:          -6.175
REMARK INTER:                  -5.938
REMARK INTRA:                  -0.237
REMARK UNBOUND:                -0.231
REMARK  Name = cpd262.pdb
REMARK  6 active torsions:
REMARK  status: ('A' for Active; 'I' for Inactive)
REMARK    1  A    between atoms: C_1  and  N_2
REMARK    2  A    between atoms: C_3  and  O_5
REMARK    3  A    between atoms: O_5  and  C_6
REMARK    4  A    between atoms: C_12  and  C_13
REMARK    5  A    between atoms: N_16  and  C_17
REMARK    6  A    between atoms: N_20  and  C_21
REMARK                            x       y       z     vdW  Elec       q    Type
REMARK                         _______ _______ _______ _____ _____    ______ ____
ROOT
ATOM      1  C   UNL A   1      43.363 -20.507 -39.006  0.00  0.00    +0.134 A 
ATOM      2  C   UNL A   1      44.149 -19.846 -38.045  0.00  0.00    -0.017 A 
ATOM      3  C   UNL A   1      43.708 -19.740 -36.721  0.00  0.00    -0.037 A 
ATOM      4  C   UNL A   1      42.509 -20.335 -36.381  0.00  0.00    +0.032 A 
ATOM      5  C   UNL A   1      41.734 -20.990 -37.363  0.00  0.00    -0.017 A 
ATOM      6  C   UNL A   1      42.142 -21.097 -38.677  0.00  0.00    -0.014 A 
ATOM      7  C   UNL A   1      40.474 -21.405 -36.671  0.00  0.00    +0.002 C 
ATOM      8  C   UNL A   1      39.482 -20.213 -36.748  0.00  0.00    -0.055 C 
ATOM      9  C   UNL A   1      39.784 -22.711 -36.951  0.00  0.00    -0.054 C 
ATOM     10  C   UNL A   1      39.045 -22.919 -35.635  0.00  0.00    -0.048 C 
ATOM     11  N   UNL A   1      39.872 -22.232 -34.530  0.00  0.00    +0.433 N 
ATOM     12  C   UNL A   1      40.144 -23.263 -33.456  0.00  0.00    -0.060 C 
ATOM     13  O   UNL A   1      39.169 -21.215 -33.939  0.00  0.00    -0.289 OA
ATOM     14  C   UNL A   1      41.208 -21.781 -35.256  0.00  0.00    +0.039 C 
ATOM     15  N   UNL A   1      41.853 -20.399 -35.122  0.00  0.00    -0.341 N 
ATOM     16  C   UNL A   1      42.568 -20.002 -33.925  0.00  0.00    -0.001 C 
ENDROOT
BRANCH   1  17
ATOM     17  O   UNL A   1      43.812 -20.686 -40.328  0.00  0.00    -0.412 OA
BRANCH  17  20
ATOM     18  C   UNL A   1      47.145 -20.526 -41.717  0.00  0.00    +0.003 C 
ATOM     19  N   UNL A   1      45.810 -20.259 -41.254  0.00  0.00    -0.284 N 
ATOM     20  C   UNL A   1      45.097 -21.171 -40.525  0.00  0.00    +0.405 C 
ATOM     21  O   UNL A   1      45.536 -22.242 -40.131  0.00  0.00    -0.226 OA
ATOM     22  H   UNL A   1      45.397 -19.392 -41.467  0.00  0.00    +0.000 HD
ENDBRANCH  17  20
ENDBRANCH   1  17
TORSDOF 2
ENDMDL
