@<TRIPOS>MOLECULE
*****
 21 23 0 0 0
SMALL
GASTEIGER

@<TRIPOS>ATOM
      1 C           5.1080   -0.0857    0.0000 C.3     1  UNL1        0.1421
      2 N           4.2184    0.4197    0.0000 N.am    1  UNL1       -0.1665
      3 C           4.2112    1.4427    0.0000 C.2     1  UNL1        0.4257
      4 O           5.0936    1.9605    0.0000 O.2     1  UNL1       -0.2241
      5 O           3.3216    1.9480    0.0000 O.3     1  UNL1       -0.4091
      6 C           2.4392    1.4303    0.0000 C.ar    1  UNL1        0.1499
      7 C           2.4457    0.4950    0.0000 C.ar    1  UNL1        0.0389
      8 C           1.6390    0.0216    0.0000 C.ar    1  UNL1        0.0175
      9 C           0.8258    0.4836    0.0000 C.ar    1  UNL1        0.0484
     10 C           0.8192    1.4189    0.0000 C.ar    1  UNL1        0.0010
     11 C           1.6259    1.8922    0.0000 C.ar    1  UNL1        0.0349
     12 C          -0.0002    1.8919    0.0000 C.3     1  UNL1        0.0894
     13 C           0.4998    2.7580    0.0000 C.3     1  UNL1        0.0123
     14 C          -0.8198    2.3651    0.0000 C.3     1  UNL1        0.0723
     15 C          -1.6455    1.8815    0.0000 C.3     1  UNL1        0.1067
     16 N          -1.6390    0.9463    0.0000 N.3     1  UNL1        0.2728
     17 C          -2.5032    0.4432    0.0000 C.3     1  UNL1        0.1677
     18 O          -2.5050    1.4463    0.0000 O.co2   1  UNL1       -0.7702
     19 C          -0.8194    0.4731    0.0000 C.3     1  UNL1        0.1391
     20 N          -0.0000   -0.0000    0.0000 N.pl3   1  UNL1       -0.2662
     21 C           0.0031   -1.0000    0.0000 C.3     1  UNL1        0.1174
@<TRIPOS>UNITY_ATOM_ATTR
16 1
charge 1
18 1
charge -1
@<TRIPOS>BOND
     1     1     2    1
     2     2     3   am
     3     3     4    2
     4     3     5    1
     5     5     6    1
     6     6     7   ar
     7     7     8   ar
     8     8     9   ar
     9     9    10   ar
    10    10    11   ar
    11     6    11   ar
    12    10    12    1
    13    12    13    1
    14    12    14    1
    15    14    15    1
    16    15    16    1
    17    16    17    1
    18    16    18    1
    19    16    19    1
    20    12    19    1
    21    19    20    1
    22     9    20    1
    23    20    21    1
