REMARK  Name = cpd51.pdb
REMARK  17 active torsions:
REMARK  status: ('A' for Active; 'I' for Inactive)
REMARK    1  A    between atoms: C_1  and  C_2
REMARK    2  A    between atoms: C_6  and  N_7
REMARK    3  A    between atoms: N_7  and  C_8
REMARK    4  A    between atoms: C_13  and  C_14
REMARK    5  A    between atoms: N_16  and  C_17
REMARK    6  A    between atoms: C_17  and  C_18
REMARK    7  A    between atoms: N_20  and  C_21
REMARK    8  A    between atoms: C_21  and  C_22
REMARK    9  A    between atoms: C_22  and  C_23
REMARK   10  A    between atoms: C_23  and  C_24
REMARK   11  A    between atoms: C_24  and  C_25
REMARK   12  A    between atoms: C_25  and  C_26
REMARK   13  A    between atoms: C_26  and  C_27
REMARK   14  A    between atoms: C_27  and  C_28
REMARK   15  A    between atoms: C_28  and  N_29
REMARK   16  A    between atoms: N_29  and  C_30
REMARK   17  A    between atoms: C_45  and  C_46
REMARK                            x       y       z     vdW  Elec       q    Type
REMARK                         _______ _______ _______ _____ _____    ______ ____
ROOT
ATOM      1  C   UNL A   1       3.182   5.337   1.146  0.00  0.00    +0.230 C 
ATOM      2  O   UNL A   1       3.399   6.241   1.948  0.00  0.00    -0.274 OA
ATOM      3  N   UNL A   1       3.573   5.383  -0.176  0.00  0.00    -0.314 N 
ATOM      4  H   UNL A   1       3.256   4.679  -0.787  0.00  0.00    +0.000 HD
ENDROOT
BRANCH   1   5
ATOM      5  C   UNL A   1       2.419   4.065   1.538  0.00  0.00    +0.088 C 
BRANCH   5   8
ATOM      6  C   UNL A   1       1.352   2.586  -0.256  0.00  0.00    +0.246 C 
ATOM      7  O   UNL A   1       1.505   1.577  -0.943  0.00  0.00    -0.270 OA
ATOM      8  N   UNL A   1       2.411   3.064   0.472  0.00  0.00    -0.303 N 
ATOM      9  H   UNL A   1       3.289   2.680   0.245  0.00  0.00    +0.000 HD
BRANCH   6  15
ATOM     10  C   UNL A   1      -1.128   2.426   0.000  0.00  0.00    +0.044 A 
ATOM     11  C   UNL A   1      -2.363   3.078   0.147  0.00  0.00    -0.040 A 
ATOM     12  C   UNL A   1      -2.474   4.463  -0.008  0.00  0.00    -0.060 A 
ATOM     13  C   UNL A   1      -1.347   5.228  -0.292  0.00  0.00    -0.061 A 
ATOM     14  C   UNL A   1      -0.099   4.614  -0.385  0.00  0.00    -0.048 A 
ATOM     15  C   UNL A   1       0.019   3.229  -0.192  0.00  0.00    +0.058 A 
BRANCH  10  16
ATOM     16  N   UNL A   1      -1.017   1.021   0.201  0.00  0.00    -0.314 N 
ATOM     17  H   UNL A   1      -0.160   0.699   0.563  0.00  0.00    +0.000 HD
BRANCH  16  23
ATOM     18  C   UNL A   1      -2.959  -3.488   1.155  0.00  0.00    -0.039 C 
ATOM     19  C   UNL A   1      -2.902  -2.206   0.368  0.00  0.00    -0.046 A 
ATOM     20  C   UNL A   1      -3.752  -2.058  -0.739  0.00  0.00    -0.058 A 
ATOM     21  C   UNL A   1      -3.712  -0.904  -1.516  0.00  0.00    -0.060 A 
ATOM     22  C   UNL A   1      -2.829   0.121  -1.191  0.00  0.00    -0.040 A 
ATOM     23  C   UNL A   1      -2.003   0.029  -0.061  0.00  0.00    +0.035 A 
ATOM     24  C   UNL A   1      -2.027  -1.151   0.721  0.00  0.00    -0.026 A 
ATOM     25  C   UNL A   1      -1.084  -1.293   1.891  0.00  0.00    -0.038 C 
ENDBRANCH  16  23
ENDBRANCH  10  16
ENDBRANCH   6  15
ENDBRANCH   5   8
ENDBRANCH   1   5
BRANCH   3  26
ATOM     26  C   UNL A   1       4.431   6.424  -0.701  0.00  0.00    +0.012 C 
BRANCH  26  27
ATOM     27  C   UNL A   1       5.900   6.096  -0.441  0.00  0.00    -0.037 C 
BRANCH  27  28
ATOM     28  C   UNL A   1       6.834   7.106  -1.111  0.00  0.00    -0.052 C 
BRANCH  28  29
ATOM     29  C   UNL A   1       8.311   6.733  -0.941  0.00  0.00    -0.053 C 
BRANCH  29  30
ATOM     30  C   UNL A   1       8.853   7.046   0.456  0.00  0.00    -0.053 C 
BRANCH  30  31
ATOM     31  C   UNL A   1      10.205   6.387   0.746  0.00  0.00    -0.052 C 
BRANCH  31  32
ATOM     32  C   UNL A   1      11.310   6.770  -0.239  0.00  0.00    -0.037 C 
BRANCH  32  33
ATOM     33  C   UNL A   1      12.642   6.128   0.155  0.00  0.00    +0.009 C 
BRANCH  33  34
ATOM     34  N   UNL A   1      13.637   6.414  -0.888  0.00  0.00    -0.343 N 
ATOM     35  H   UNL A   1      13.482   7.021  -1.648  0.00  0.00    +0.000 HD
BRANCH  34  36
ATOM     36  C   UNL A   1      14.856   5.705  -0.666  0.00  0.00    +0.041 A 
ATOM     37  C   UNL A   1      15.920   6.306   0.037  0.00  0.00    -0.005 A 
ATOM     38  C   UNL A   1      17.059   5.530   0.269  0.00  0.00    +0.047 A 
ATOM     39  N   UNL A   1      17.162   4.230  -0.100  0.00  0.00    -0.251 NA
ATOM     40  C   UNL A   1      16.146   3.656  -0.755  0.00  0.00    +0.074 A 
ATOM     41  C   UNL A   1      16.280   2.328  -1.132  0.00  0.00    -0.017 A 
ATOM     42  C   UNL A   1      15.272   1.668  -1.830  0.00  0.00    +0.043 A 
ATOM     43 CL   UNL A   1      15.477   0.019  -2.278  0.00  0.00    -0.083 Cl
ATOM     44  C   UNL A   1      14.105   2.334  -2.173  0.00  0.00    -0.043 A 
ATOM     45  C   UNL A   1      13.953   3.668  -1.801  0.00  0.00    -0.049 A 
ATOM     46  C   UNL A   1      14.961   4.347  -1.075  0.00  0.00    +0.022 A 
ATOM     47  C   UNL A   1      18.253   6.071   1.014  0.00  0.00    -0.010 C 
ATOM     48  C   UNL A   1      18.313   7.593   1.028  0.00  0.00    -0.047 C 
ATOM     49  C   UNL A   1      16.966   8.154   1.455  0.00  0.00    -0.049 C 
ATOM     50  C   UNL A   1      15.879   7.756   0.458  0.00  0.00    -0.024 C 
ENDBRANCH  34  36
ENDBRANCH  33  34
ENDBRANCH  32  33
ENDBRANCH  31  32
ENDBRANCH  30  31
ENDBRANCH  29  30
ENDBRANCH  28  29
ENDBRANCH  27  28
ENDBRANCH  26  27
ENDBRANCH   3  26
TORSDOF 15
