REMARK  Name = cpd66.pdb
REMARK  10 active torsions:
REMARK  status: ('A' for Active; 'I' for Inactive)
REMARK    1  A    between atoms: O_1  and  C_2
REMARK    2  A    between atoms: C_2  and  O_3
REMARK    3  A    between atoms: C_2  and  C_4
REMARK    4  A    between atoms: C_2  and  C_26
REMARK    5  A    between atoms: C_4  and  C_5
REMARK    6  A    between atoms: C_5  and  C_6
REMARK    7  A    between atoms: C_6  and  C_7
REMARK    8  A    between atoms: C_7  and  C_8
REMARK    9  A    between atoms: C_8  and  N_9
REMARK   10  A    between atoms: N_9  and  C_10
REMARK                            x       y       z     vdW  Elec       q    Type
REMARK                         _______ _______ _______ _____ _____    ______ ____
ROOT
ATOM      1  N   UNL A   1      -3.263  -0.477  -0.633  0.00  0.00    -0.343 N 
ATOM      2  H   UNL A   1      -3.363  -0.955  -1.488  0.00  0.00    +0.000 HD
ENDROOT
BRANCH   1   3
ATOM      3  C   UNL A   1      -3.212   0.948  -0.507  0.00  0.00    +0.043 A 
ATOM      4  C   UNL A   1      -1.937   1.567  -0.523  0.00  0.00    -0.005 A 
ATOM      5  C   UNL A   1      -1.874   2.925  -0.229  0.00  0.00    +0.047 A 
ATOM      6  N   UNL A   1      -2.969   3.656   0.075  0.00  0.00    -0.251 NA
ATOM      7  C   UNL A   1      -4.176   3.082   0.058  0.00  0.00    +0.074 A 
ATOM      8  C   UNL A   1      -5.240   3.919   0.365  0.00  0.00    -0.036 A 
ATOM      9  C   UNL A   1      -6.557   3.474   0.375  0.00  0.00    -0.058 A 
ATOM     10  C   UNL A   1      -6.821   2.155   0.054  0.00  0.00    -0.043 A 
ATOM     11  C   UNL A   1      -5.765   1.289  -0.258  0.00  0.00    +0.052 A 
ATOM     12 CL   UNL A   1      -6.249  -0.312  -0.725  0.00  0.00    -0.083 Cl
ATOM     13  C   UNL A   1      -4.398   1.722  -0.244  0.00  0.00    +0.040 A 
ATOM     14  C   UNL A   1      -0.574   3.689  -0.221  0.00  0.00    -0.010 C 
ATOM     15  C   UNL A   1       0.401   3.205   0.851  0.00  0.00    -0.048 C 
ATOM     16  C   UNL A   1       1.179   1.953   0.450  0.00  0.00    -0.052 C 
ATOM     17  C   UNL A   1       0.322   0.704   0.254  0.00  0.00    -0.049 C 
ATOM     18  C   UNL A   1      -0.680   0.816  -0.895  0.00  0.00    -0.024 C 
ENDBRANCH   1   3
BRANCH   1  19
ATOM     19  C   UNL A   1      -3.147  -1.137   0.679  0.00  0.00    +0.009 C 
BRANCH  19  20
ATOM     20  C   UNL A   1      -2.834  -2.629   0.500  0.00  0.00    -0.037 C 
BRANCH  20  21
ATOM     21  C   UNL A   1      -1.436  -2.837  -0.088  0.00  0.00    -0.051 C 
BRANCH  21  22
ATOM     22  C   UNL A   1      -0.946  -4.288   0.006  0.00  0.00    -0.048 C 
BRANCH  22  23
ATOM     23  C   UNL A   1       0.396  -4.556  -0.746  0.00  0.00    +0.010 C 
BRANCH  23  24
ATOM     24  C   UNL A   1       1.816  -3.877   0.000  0.00  0.00    +0.263 C 
BRANCH  24  25
ATOM     25  C   UNL A   1       2.316  -4.742   0.000  0.00  0.00    +0.444 C 
ATOM     26  F   UNL A   1       2.558  -5.477  -1.126  0.00  0.00    -0.165 F 
ATOM     27  F   UNL A   1       3.598  -4.546   0.508  0.00  0.00    -0.165 F 
ATOM     28  F   UNL A   1       1.825  -5.658   0.905  0.00  0.00    -0.165 F 
ENDBRANCH  24  25
BRANCH  24  29
ATOM     29  O   UNL A   1       2.653  -3.229  -1.132  0.00  0.00    -0.358 OA
ATOM     30  H   UNL A   1       3.332  -3.854  -1.430  0.00  0.00    +0.000 HD
ENDBRANCH  24  29
BRANCH  24  31
ATOM     31  O   UNL A   1       1.316  -3.010   0.000  0.00  0.00    -0.358 OA
ATOM     32  H   UNL A   1       0.616  -3.040   0.671  0.00  0.00    +0.000 HD
ENDBRANCH  24  31
ENDBRANCH  23  24
ENDBRANCH  22  23
ENDBRANCH  21  22
ENDBRANCH  20  21
ENDBRANCH  19  20
ENDBRANCH   1  19
TORSDOF 10
