@<TRIPOS>MOLECULE
*****
 29 31 0 0 0
SMALL
GASTEIGER

@<TRIPOS>ATOM
      1 O           2.6823   -3.3765    0.0000 O.2     1  UNL1       -0.2660
      2 C           1.8162   -3.8765    0.0000 C.3     1  UNL1        0.4359
      3 O           1.3162   -3.0105    0.0000 O.2     1  UNL1       -0.2660
      4 C           0.9502   -4.3765    0.0000 C.3     1  UNL1        0.1008
      5 C           0.0842   -3.8765    0.0000 C.3     1  UNL1        0.0082
      6 C           0.0842   -2.8765    0.0000 C.3     1  UNL1        0.0021
      7 C          -0.7818   -2.3765    0.0000 C.3     1  UNL1        0.0233
      8 C          -0.7818   -1.3765    0.0000 C.3     1  UNL1        0.1122
      9 N          -1.6479   -0.8765    0.0000 N.pl3   1  UNL1       -0.2378
     10 C          -1.6479    0.1235    0.0000 C.ar    1  UNL1        0.0647
     11 C          -0.7818    0.6235    0.0000 C.ar    1  UNL1        0.0063
     12 C          -0.7818    1.6235    0.0000 C.ar    1  UNL1        0.0562
     13 N          -1.6479    2.1235    0.0000 N.ar    1  UNL1       -0.2499
     14 C          -2.5139    1.6235    0.0000 C.ar    1  UNL1        0.0829
     15 C          -3.3799    2.1235    0.0000 C.ar    1  UNL1        0.0192
     16 C          -4.2459    1.6235    0.0000 C.ar    1  UNL1        0.0024
     17 C          -4.2459    0.6235    0.0000 C.ar    1  UNL1        0.0115
     18 C          -3.3799    0.1235    0.0000 C.ar    1  UNL1        0.0603
     19 CL         -3.3799   -0.8765    0.0000 Cl      1  UNL1       -0.0822
     20 C          -2.5139    0.6235    0.0000 C.ar    1  UNL1        0.0428
     21 C           0.0000    2.2470    0.0000 C.3     1  UNL1        0.0455
     22 C           0.9749    2.0245    0.0000 C.3     1  UNL1        0.0063
     23 C           1.4088    1.1235    0.0000 C.3     1  UNL1        0.0007
     24 C           0.9749    0.2225    0.0000 C.3     1  UNL1        0.0048
     25 C           0.0000   -0.0000    0.0000 C.3     1  UNL1        0.0289
     26 C           2.3162   -4.7425    0.0000 C.3     1  UNL1        0.4771
     27 F           3.1823   -5.2425    0.0000 F       1  UNL1       -0.1634
     28 F           3.1823   -4.2425    0.0000 F       1  UNL1       -0.1634
     29 F           1.8162   -5.6086    0.0000 F       1  UNL1       -0.1634
@<TRIPOS>BOND
     1     1     2    1
     2     2     3    1
     3     2     4    1
     4     4     5    1
     5     5     6    1
     6     6     7    1
     7     7     8    1
     8     8     9    1
     9     9    10    1
    10    10    11   ar
    11    11    12   ar
    12    12    13   ar
    13    13    14   ar
    14    14    15   ar
    15    15    16   ar
    16    16    17   ar
    17    17    18   ar
    18    18    19    1
    19    18    20   ar
    20    10    20   ar
    21    14    20   ar
    22    12    21    1
    23    21    22    1
    24    22    23    1
    25    23    24    1
    26    24    25    1
    27    11    25    1
    28     2    26    1
    29    26    27    1
    30    26    28    1
    31    26    29    1
