REMARK  Name = cpd41.pdb
REMARK  17 active torsions:
REMARK  status: ('A' for Active; 'I' for Inactive)
REMARK    1  A    between atoms: C_1  and  C_2
REMARK    2  A    between atoms: C_6  and  N_7
REMARK    3  A    between atoms: N_7  and  C_8
REMARK    4  A    between atoms: C_13  and  C_14
REMARK    5  A    between atoms: N_16  and  C_17
REMARK    6  A    between atoms: C_17  and  C_18
REMARK    7  A    between atoms: N_20  and  C_21
REMARK    8  A    between atoms: C_21  and  C_22
REMARK    9  A    between atoms: C_22  and  C_23
REMARK   10  A    between atoms: C_23  and  C_24
REMARK   11  A    between atoms: C_24  and  C_25
REMARK   12  A    between atoms: C_25  and  C_26
REMARK   13  A    between atoms: C_26  and  C_27
REMARK   14  A    between atoms: C_27  and  C_28
REMARK   15  A    between atoms: C_28  and  N_29
REMARK   16  A    between atoms: N_29  and  C_30
REMARK   17  A    between atoms: C_44  and  C_45
REMARK                            x       y       z     vdW  Elec       q    Type
REMARK                         _______ _______ _______ _____ _____    ______ ____
ROOT
ATOM      1  C   UNL A   1       3.181   5.209   1.128  0.00  0.00    +0.230 C 
ATOM      2  O   UNL A   1       3.396   6.143   1.895  0.00  0.00    -0.274 OA
ATOM      3  N   UNL A   1       3.611   5.187  -0.182  0.00  0.00    -0.314 N 
ATOM      4  H   UNL A   1       3.311   4.453  -0.765  0.00  0.00    +0.000 HD
ENDROOT
BRANCH   1   5
ATOM      5  C   UNL A   1       2.380   3.972   1.555  0.00  0.00    +0.088 C 
BRANCH   5   8
ATOM      6  C   UNL A   1       1.301   2.462  -0.206  0.00  0.00    +0.246 C 
ATOM      7  O   UNL A   1       1.428   1.418  -0.841  0.00  0.00    -0.270 OA
ATOM      8  N   UNL A   1       2.360   2.930   0.529  0.00  0.00    -0.303 N 
ATOM      9  H   UNL A   1       3.228   2.505   0.340  0.00  0.00    +0.000 HD
BRANCH   6  15
ATOM     10  C   UNL A   1      -1.190   2.420  -0.020  0.00  0.00    +0.044 A 
ATOM     11  C   UNL A   1      -2.400   3.129   0.057  0.00  0.00    -0.040 A 
ATOM     12  C   UNL A   1      -2.447   4.509  -0.160  0.00  0.00    -0.060 A 
ATOM     13  C   UNL A   1      -1.279   5.212  -0.439  0.00  0.00    -0.061 A 
ATOM     14  C   UNL A   1      -0.057   4.543  -0.465  0.00  0.00    -0.048 A 
ATOM     15  C   UNL A   1      -0.004   3.164  -0.209  0.00  0.00    +0.058 A 
BRANCH  10  16
ATOM     16  N   UNL A   1      -1.149   1.021   0.244  0.00  0.00    -0.314 N 
ATOM     17  H   UNL A   1      -0.321   0.677   0.650  0.00  0.00    +0.000 HD
BRANCH  16  23
ATOM     18  C   UNL A   1      -3.364  -3.330   1.332  0.00  0.00    -0.039 C 
ATOM     19  C   UNL A   1      -3.203  -2.097   0.484  0.00  0.00    -0.046 A 
ATOM     20  C   UNL A   1      -3.991  -1.966  -0.670  0.00  0.00    -0.058 A 
ATOM     21  C   UNL A   1      -3.857  -0.860  -1.502  0.00  0.00    -0.060 A 
ATOM     22  C   UNL A   1      -2.938   0.137  -1.186  0.00  0.00    -0.040 A 
ATOM     23  C   UNL A   1      -2.171   0.065  -0.013  0.00  0.00    +0.035 A 
ATOM     24  C   UNL A   1      -2.293  -1.068   0.826  0.00  0.00    -0.026 A 
ATOM     25  C   UNL A   1      -1.414  -1.194   2.047  0.00  0.00    -0.038 C 
ENDBRANCH  16  23
ENDBRANCH  10  16
ENDBRANCH   6  15
ENDBRANCH   5   8
ENDBRANCH   1   5
BRANCH   3  26
ATOM     26  C   UNL A   1       4.485   6.198  -0.736  0.00  0.00    +0.012 C 
BRANCH  26  27
ATOM     27  C   UNL A   1       5.949   5.870  -0.447  0.00  0.00    -0.037 C 
BRANCH  27  28
ATOM     28  C   UNL A   1       6.894   6.863  -1.126  0.00  0.00    -0.052 C 
BRANCH  28  29
ATOM     29  C   UNL A   1       8.369   6.485  -0.954  0.00  0.00    -0.053 C 
BRANCH  29  30
ATOM     30  C   UNL A   1       8.904   6.766   0.452  0.00  0.00    -0.053 C 
BRANCH  30  31
ATOM     31  C   UNL A   1      10.285   6.155   0.710  0.00  0.00    -0.052 C 
BRANCH  31  32
ATOM     32  C   UNL A   1      11.374   6.656  -0.238  0.00  0.00    -0.037 C 
BRANCH  32  33
ATOM     33  C   UNL A   1      12.736   6.059   0.124  0.00  0.00    +0.009 C 
BRANCH  33  34
ATOM     34  N   UNL A   1      13.725   6.488  -0.875  0.00  0.00    -0.343 N 
ATOM     35  H   UNL A   1      13.545   7.148  -1.583  0.00  0.00    +0.000 HD
BRANCH  34  36
ATOM     36  C   UNL A   1      14.979   5.829  -0.693  0.00  0.00    +0.041 A 
ATOM     37  C   UNL A   1      16.000   6.426   0.075  0.00  0.00    -0.005 A 
ATOM     38  C   UNL A   1      17.178   5.696   0.260  0.00  0.00    +0.047 A 
ATOM     39  N   UNL A   1      17.357   4.440  -0.212  0.00  0.00    -0.251 NA
ATOM     40  C   UNL A   1      16.381   3.869  -0.930  0.00  0.00    +0.073 A 
ATOM     41  C   UNL A   1      16.588   2.584  -1.417  0.00  0.00    -0.036 A 
ATOM     42  C   UNL A   1      15.630   1.921  -2.187  0.00  0.00    -0.060 A 
ATOM     43  C   UNL A   1      14.434   2.555  -2.487  0.00  0.00    -0.061 A 
ATOM     44  C   UNL A   1      14.205   3.844  -2.007  0.00  0.00    -0.051 A 
ATOM     45  C   UNL A   1      15.164   4.517  -1.210  0.00  0.00    +0.021 A 
ATOM     46  C   UNL A   1      18.330   6.238   1.067  0.00  0.00    -0.010 C 
ATOM     47  C   UNL A   1      18.305   7.755   1.209  0.00  0.00    -0.047 C 
ATOM     48  C   UNL A   1      16.923   8.203   1.659  0.00  0.00    -0.049 C 
ATOM     49  C   UNL A   1      15.872   7.831   0.615  0.00  0.00    -0.024 C 
ENDBRANCH  34  36
ENDBRANCH  33  34
ENDBRANCH  32  33
ENDBRANCH  31  32
ENDBRANCH  30  31
ENDBRANCH  29  30
ENDBRANCH  28  29
ENDBRANCH  27  28
ENDBRANCH  26  27
ENDBRANCH   3  26
TORSDOF 15
