MODEL 1
REMARK VINA RESULT:    -8.608      0.000      0.000
REMARK INTER + INTRA:          -8.608
REMARK INTER:                  -8.608
REMARK INTRA:                   0.000
REMARK UNBOUND:                 0.000
REMARK  Name = cpd179.pdb
REMARK  0 active torsions:
REMARK  status: ('A' for Active; 'I' for Inactive)
REMARK                            x       y       z     vdW  Elec       q    Type
REMARK                         _______ _______ _______ _____ _____    ______ ____
ROOT
ATOM      1 CL   UNL A   1      37.811 -35.000 -31.981  0.00  0.00    -0.083 Cl
ATOM      2  C   UNL A   1      38.499 -36.149 -30.865  0.00  0.00    +0.055 A 
ATOM      3  C   UNL A   1      39.814 -36.598 -31.074  0.00  0.00    -0.007 A 
ATOM      4  C   UNL A   1      40.301 -37.550 -30.183  0.00  0.00    +0.047 A 
ATOM      5  N   UNL A   1      39.584 -38.012 -29.133  0.00  0.00    -0.251 NA
ATOM      6  C   UNL A   1      38.335 -37.564 -28.936  0.00  0.00    +0.073 A 
ATOM      7  C   UNL A   1      37.627 -38.066 -27.852  0.00  0.00    -0.036 A 
ATOM      8  C   UNL A   1      36.321 -37.663 -27.570  0.00  0.00    -0.060 A 
ATOM      9  C   UNL A   1      35.699 -36.734 -28.391  0.00  0.00    -0.061 A 
ATOM     10  C   UNL A   1      36.393 -36.216 -29.484  0.00  0.00    -0.051 A 
ATOM     11  C   UNL A   1      37.723 -36.621 -29.777  0.00  0.00    +0.019 A 
ATOM     12  C   UNL A   1      41.698 -38.105 -30.298  0.00  0.00    -0.010 C 
ATOM     13  C   UNL A   1      42.293 -37.943 -31.691  0.00  0.00    -0.047 C 
ATOM     14  C   UNL A   1      42.124 -36.504 -32.155  0.00  0.00    -0.049 C 
ATOM     15  C   UNL A   1      40.644 -36.136 -32.249  0.00  0.00    -0.025 C 
ENDROOT
TORSDOF 0
ENDMDL
MODEL 2
REMARK VINA RESULT:    -8.412      1.872      2.771
REMARK INTER + INTRA:          -8.412
REMARK INTER:                  -8.412
REMARK INTRA:                   0.000
REMARK UNBOUND:                 0.000
REMARK  Name = cpd179.pdb
REMARK  0 active torsions:
REMARK  status: ('A' for Active; 'I' for Inactive)
REMARK                            x       y       z     vdW  Elec       q    Type
REMARK                         _______ _______ _______ _____ _____    ______ ____
ROOT
ATOM      1 CL   UNL A   1      39.142 -38.595 -28.125  0.00  0.00    -0.083 Cl
ATOM      2  C   UNL A   1      39.095 -37.508 -29.488  0.00  0.00    +0.055 A 
ATOM      3  C   UNL A   1      40.224 -37.408 -30.318  0.00  0.00    -0.007 A 
ATOM      4  C   UNL A   1      40.153 -36.492 -31.364  0.00  0.00    +0.047 A 
ATOM      5  N   UNL A   1      39.052 -35.749 -31.620  0.00  0.00    -0.251 NA
ATOM      6  C   UNL A   1      37.976 -35.866 -30.829  0.00  0.00    +0.073 A 
ATOM      7  C   UNL A   1      36.866 -35.082 -31.118  0.00  0.00    -0.036 A 
ATOM      8  C   UNL A   1      35.703 -35.131 -30.348  0.00  0.00    -0.060 A 
ATOM      9  C   UNL A   1      35.642 -35.984 -29.257  0.00  0.00    -0.061 A 
ATOM     10  C   UNL A   1      36.743 -36.781 -28.949  0.00  0.00    -0.051 A 
ATOM     11  C   UNL A   1      37.930 -36.737 -29.728  0.00  0.00    +0.019 A 
ATOM     12  C   UNL A   1      41.296 -36.297 -32.328  0.00  0.00    -0.010 C 
ATOM     13  C   UNL A   1      42.634 -36.765 -31.770  0.00  0.00    -0.047 C 
ATOM     14  C   UNL A   1      42.491 -38.171 -31.208  0.00  0.00    -0.049 C 
ATOM     15  C   UNL A   1      41.487 -38.192 -30.055  0.00  0.00    -0.025 C 
ENDROOT
TORSDOF 0
ENDMDL
MODEL 3
REMARK VINA RESULT:    -8.084      1.971      5.498
REMARK INTER + INTRA:          -8.084
REMARK INTER:                  -8.084
REMARK INTRA:                   0.000
REMARK UNBOUND:                 0.000
REMARK  Name = cpd179.pdb
REMARK  0 active torsions:
REMARK  status: ('A' for Active; 'I' for Inactive)
REMARK                            x       y       z     vdW  Elec       q    Type
REMARK                         _______ _______ _______ _____ _____    ______ ____
ROOT
ATOM      1 CL   UNL A   1      38.949 -38.264 -28.451  0.00  0.00    -0.083 Cl
ATOM      2  C   UNL A   1      38.516 -37.121 -29.695  0.00  0.00    +0.055 A 
ATOM      3  C   UNL A   1      37.250 -36.514 -29.652  0.00  0.00    -0.007 A 
ATOM      4  C   UNL A   1      36.935 -35.646 -30.694  0.00  0.00    +0.047 A 
ATOM      5  N   UNL A   1      37.799 -35.348 -31.692  0.00  0.00    -0.251 NA
ATOM      6  C   UNL A   1      39.010 -35.923 -31.713  0.00  0.00    +0.073 A 
ATOM      7  C   UNL A   1      39.867 -35.599 -32.756  0.00  0.00    -0.036 A 
ATOM      8  C   UNL A   1      41.145 -36.151 -32.864  0.00  0.00    -0.060 A 
ATOM      9  C   UNL A   1      41.583 -37.053 -31.907  0.00  0.00    -0.061 A 
ATOM     10  C   UNL A   1      40.740 -37.391 -30.850  0.00  0.00    -0.051 A 
ATOM     11  C   UNL A   1      39.438 -36.833 -30.733  0.00  0.00    +0.019 A 
ATOM     12  C   UNL A   1      35.611 -34.928 -30.757  0.00  0.00    -0.010 C 
ATOM     13  C   UNL A   1      34.525 -35.605 -29.931  0.00  0.00    -0.047 C 
ATOM     14  C   UNL A   1      35.047 -35.883 -28.530  0.00  0.00    -0.049 C 
ATOM     15  C   UNL A   1      36.240 -36.837 -28.577  0.00  0.00    -0.025 C 
ENDROOT
TORSDOF 0
ENDMDL
MODEL 4
REMARK VINA RESULT:    -8.084      0.318      4.738
REMARK INTER + INTRA:          -8.084
REMARK INTER:                  -8.084
REMARK INTRA:                   0.000
REMARK UNBOUND:                 0.000
REMARK  Name = cpd179.pdb
REMARK  0 active torsions:
REMARK  status: ('A' for Active; 'I' for Inactive)
REMARK                            x       y       z     vdW  Elec       q    Type
REMARK                         _______ _______ _______ _____ _____    ______ ____
ROOT
ATOM      1 CL   UNL A   1      37.851 -34.716 -31.894  0.00  0.00    -0.083 Cl
ATOM      2  C   UNL A   1      38.436 -35.998 -30.866  0.00  0.00    +0.055 A 
ATOM      3  C   UNL A   1      37.587 -36.516 -29.874  0.00  0.00    -0.007 A 
ATOM      4  C   UNL A   1      38.116 -37.504 -29.049  0.00  0.00    +0.047 A 
ATOM      5  N   UNL A   1      39.370 -37.993 -29.195  0.00  0.00    -0.251 NA
ATOM      6  C   UNL A   1      40.165 -37.500 -30.156  0.00  0.00    +0.073 A 
ATOM      7  C   UNL A   1      41.447 -38.021 -30.272  0.00  0.00    -0.036 A 
ATOM      8  C   UNL A   1      42.346 -37.567 -31.237  0.00  0.00    -0.060 A 
ATOM      9  C   UNL A   1      41.960 -36.565 -32.114  0.00  0.00    -0.061 A 
ATOM     10  C   UNL A   1      40.677 -36.029 -32.017  0.00  0.00    -0.051 A 
ATOM     11  C   UNL A   1      39.756 -36.486 -31.037  0.00  0.00    +0.019 A 
ATOM     12  C   UNL A   1      37.304 -38.144 -27.952  0.00  0.00    -0.010 C 
ATOM     13  C   UNL A   1      36.120 -37.292 -27.512  0.00  0.00    -0.047 C 
ATOM     14  C   UNL A   1      35.328 -36.848 -28.733  0.00  0.00    -0.049 C 
ATOM     15  C   UNL A   1      36.191 -35.982 -29.651  0.00  0.00    -0.025 C 
ENDROOT
TORSDOF 0
ENDMDL
MODEL 5
REMARK VINA RESULT:    -7.158      1.441      5.290
REMARK INTER + INTRA:          -7.158
REMARK INTER:                  -7.158
REMARK INTRA:                   0.000
REMARK UNBOUND:                 0.000
REMARK  Name = cpd179.pdb
REMARK  0 active torsions:
REMARK  status: ('A' for Active; 'I' for Inactive)
REMARK                            x       y       z     vdW  Elec       q    Type
REMARK                         _______ _______ _______ _____ _____    ______ ____
ROOT
ATOM      1 CL   UNL A   1      36.134 -35.058 -31.130  0.00  0.00    -0.083 Cl
ATOM      2  C   UNL A   1      36.602 -36.160 -29.862  0.00  0.00    +0.055 A 
ATOM      3  C   UNL A   1      35.666 -36.488 -28.866  0.00  0.00    -0.007 A 
ATOM      4  C   UNL A   1      36.103 -37.334 -27.850  0.00  0.00    +0.047 A 
ATOM      5  N   UNL A   1      37.348 -37.865 -27.817  0.00  0.00    -0.251 NA
ATOM      6  C   UNL A   1      38.225 -37.556 -28.782  0.00  0.00    +0.073 A 
ATOM      7  C   UNL A   1      39.495 -38.113 -28.711  0.00  0.00    -0.036 A 
ATOM      8  C   UNL A   1      40.476 -37.846 -29.666  0.00  0.00    -0.060 A 
ATOM      9  C   UNL A   1      40.187 -36.998 -30.725  0.00  0.00    -0.061 A 
ATOM     10  C   UNL A   1      38.918 -36.428 -30.816  0.00  0.00    -0.051 A 
ATOM     11  C   UNL A   1      37.914 -36.696 -29.848  0.00  0.00    +0.019 A 
ATOM     12  C   UNL A   1      35.193 -37.765 -26.728  0.00  0.00    -0.010 C 
ATOM     13  C   UNL A   1      34.008 -36.828 -26.528  0.00  0.00    -0.047 C 
ATOM     14  C   UNL A   1      33.322 -36.579 -27.862  0.00  0.00    -0.049 C 
ATOM     15  C   UNL A   1      34.277 -35.897 -28.842  0.00  0.00    -0.025 C 
ENDROOT
TORSDOF 0
ENDMDL
MODEL 6
REMARK VINA RESULT:    -7.088      2.488      5.723
REMARK INTER + INTRA:          -7.088
REMARK INTER:                  -7.088
REMARK INTRA:                   0.000
REMARK UNBOUND:                 0.000
REMARK  Name = cpd179.pdb
REMARK  0 active torsions:
REMARK  status: ('A' for Active; 'I' for Inactive)
REMARK                            x       y       z     vdW  Elec       q    Type
REMARK                         _______ _______ _______ _____ _____    ______ ____
ROOT
ATOM      1 CL   UNL A   1      36.135 -37.746 -27.351  0.00  0.00    -0.083 Cl
ATOM      2  C   UNL A   1      36.474 -36.743 -28.737  0.00  0.00    +0.055 A 
ATOM      3  C   UNL A   1      35.487 -35.852 -29.190  0.00  0.00    -0.007 A 
ATOM      4  C   UNL A   1      35.788 -35.108 -30.327  0.00  0.00    +0.047 A 
ATOM      5  N   UNL A   1      36.979 -35.186 -30.965  0.00  0.00    -0.251 NA
ATOM      6  C   UNL A   1      37.918 -36.030 -30.513  0.00  0.00    +0.073 A 
ATOM      7  C   UNL A   1      39.125 -36.089 -31.197  0.00  0.00    -0.036 A 
ATOM      8  C   UNL A   1      40.159 -36.940 -30.804  0.00  0.00    -0.060 A 
ATOM      9  C   UNL A   1      39.987 -37.759 -29.698  0.00  0.00    -0.061 A 
ATOM     10  C   UNL A   1      38.784 -37.716 -28.996  0.00  0.00    -0.051 A 
ATOM     11  C   UNL A   1      37.727 -36.851 -29.390  0.00  0.00    +0.019 A 
ATOM     12  C   UNL A   1      34.816 -34.113 -30.907  0.00  0.00    -0.010 C 
ATOM     13  C   UNL A   1      33.374 -34.372 -30.486  0.00  0.00    -0.047 C 
ATOM     14  C   UNL A   1      33.306 -34.543 -28.976  0.00  0.00    -0.049 C 
ATOM     15  C   UNL A   1      34.131 -35.751 -28.531  0.00  0.00    -0.025 C 
ENDROOT
TORSDOF 0
ENDMDL
MODEL 7
REMARK VINA RESULT:    -6.982      1.878      3.264
REMARK INTER + INTRA:          -6.982
REMARK INTER:                  -6.982
REMARK INTRA:                   0.000
REMARK UNBOUND:                 0.000
REMARK  Name = cpd179.pdb
REMARK  0 active torsions:
REMARK  status: ('A' for Active; 'I' for Inactive)
REMARK                            x       y       z     vdW  Elec       q    Type
REMARK                         _______ _______ _______ _____ _____    ______ ____
ROOT
ATOM      1 CL   UNL A   1      38.490 -35.300 -32.194  0.00  0.00    -0.083 Cl
ATOM      2  C   UNL A   1      37.678 -35.858 -30.755  0.00  0.00    +0.055 A 
ATOM      3  C   UNL A   1      38.333 -36.775 -29.916  0.00  0.00    -0.007 A 
ATOM      4  C   UNL A   1      37.625 -37.225 -28.806  0.00  0.00    +0.047 A 
ATOM      5  N   UNL A   1      36.381 -36.790 -28.499  0.00  0.00    -0.251 NA
ATOM      6  C   UNL A   1      35.773 -35.903 -29.300  0.00  0.00    +0.073 A 
ATOM      7  C   UNL A   1      34.494 -35.485 -28.957  0.00  0.00    -0.036 A 
ATOM      8  C   UNL A   1      33.781 -34.569 -29.732  0.00  0.00    -0.060 A 
ATOM      9  C   UNL A   1      34.357 -34.054 -30.883  0.00  0.00    -0.061 A 
ATOM     10  C   UNL A   1      35.641 -34.459 -31.246  0.00  0.00    -0.051 A 
ATOM     11  C   UNL A   1      36.372 -35.391 -30.462  0.00  0.00    +0.019 A 
ATOM     12  C   UNL A   1      38.221 -38.205 -27.827  0.00  0.00    -0.010 C 
ATOM     13  C   UNL A   1      39.374 -39.009 -28.413  0.00  0.00    -0.047 C 
ATOM     14  C   UNL A   1      40.368 -38.068 -29.078  0.00  0.00    -0.049 C 
ATOM     15  C   UNL A   1      39.708 -37.314 -30.233  0.00  0.00    -0.025 C 
ENDROOT
TORSDOF 0
ENDMDL
MODEL 8
REMARK VINA RESULT:    -6.921      3.183      5.979
REMARK INTER + INTRA:          -6.921
REMARK INTER:                  -6.921
REMARK INTRA:                   0.000
REMARK UNBOUND:                 0.000
REMARK  Name = cpd179.pdb
REMARK  0 active torsions:
REMARK  status: ('A' for Active; 'I' for Inactive)
REMARK                            x       y       z     vdW  Elec       q    Type
REMARK                         _______ _______ _______ _____ _____    ______ ____
ROOT
ATOM      1 CL   UNL A   1      34.499 -36.551 -27.720  0.00  0.00    -0.083 Cl
ATOM      2  C   UNL A   1      35.354 -35.758 -29.016  0.00  0.00    +0.055 A 
ATOM      3  C   UNL A   1      34.786 -34.619 -29.611  0.00  0.00    -0.007 A 
ATOM      4  C   UNL A   1      35.485 -34.052 -30.672  0.00  0.00    +0.047 A 
ATOM      5  N   UNL A   1      36.676 -34.524 -31.107  0.00  0.00    -0.251 NA
ATOM      6  C   UNL A   1      37.215 -35.602 -30.521  0.00  0.00    +0.073 A 
ATOM      7  C   UNL A   1      38.435 -36.063 -30.999  0.00  0.00    -0.036 A 
ATOM      8  C   UNL A   1      39.069 -37.180 -30.455  0.00  0.00    -0.060 A 
ATOM      9  C   UNL A   1      38.473 -37.862 -29.405  0.00  0.00    -0.061 A 
ATOM     10  C   UNL A   1      37.249 -37.416 -28.908  0.00  0.00    -0.051 A 
ATOM     11  C   UNL A   1      36.597 -36.279 -29.456  0.00  0.00    +0.019 A 
ATOM     12  C   UNL A   1      34.983 -32.824 -31.388  0.00  0.00    -0.010 C 
ATOM     13  C   UNL A   1      33.486 -32.600 -31.213  0.00  0.00    -0.047 C 
ATOM     14  C   UNL A   1      33.126 -32.685 -29.737  0.00  0.00    -0.049 C 
ATOM     15  C   UNL A   1      33.445 -34.073 -29.182  0.00  0.00    -0.025 C 
ENDROOT
TORSDOF 0
ENDMDL
MODEL 9
REMARK VINA RESULT:    -6.825      3.383      5.111
REMARK INTER + INTRA:          -6.825
REMARK INTER:                  -6.825
REMARK INTRA:                   0.000
REMARK UNBOUND:                 0.000
REMARK  Name = cpd179.pdb
REMARK  0 active torsions:
REMARK  status: ('A' for Active; 'I' for Inactive)
REMARK                            x       y       z     vdW  Elec       q    Type
REMARK                         _______ _______ _______ _____ _____    ______ ____
ROOT
ATOM      1 CL   UNL A   1      34.034 -36.051 -27.539  0.00  0.00    -0.083 Cl
ATOM      2  C   UNL A   1      34.948 -35.453 -28.899  0.00  0.00    +0.055 A 
ATOM      3  C   UNL A   1      36.091 -36.157 -29.313  0.00  0.00    -0.007 A 
ATOM      4  C   UNL A   1      36.812 -35.614 -30.372  0.00  0.00    +0.047 A 
ATOM      5  N   UNL A   1      36.435 -34.487 -31.020  0.00  0.00    -0.251 NA
ATOM      6  C   UNL A   1      35.333 -33.833 -30.624  0.00  0.00    +0.073 A 
ATOM      7  C   UNL A   1      34.981 -32.677 -31.307  0.00  0.00    -0.036 A 
ATOM      8  C   UNL A   1      33.855 -31.927 -30.964  0.00  0.00    -0.060 A 
ATOM      9  C   UNL A   1      33.055 -32.339 -29.909  0.00  0.00    -0.061 A 
ATOM     10  C   UNL A   1      33.389 -33.498 -29.210  0.00  0.00    -0.051 A 
ATOM     11  C   UNL A   1      34.534 -34.266 -29.554  0.00  0.00    +0.019 A 
ATOM     12  C   UNL A   1      38.053 -36.278 -30.913  0.00  0.00    -0.010 C 
ATOM     13  C   UNL A   1      38.700 -37.234 -29.919  0.00  0.00    -0.047 C 
ATOM     14  C   UNL A   1      37.648 -38.179 -29.359  0.00  0.00    -0.049 C 
ATOM     15  C   UNL A   1      36.570 -37.401 -28.603  0.00  0.00    -0.025 C 
ENDROOT
TORSDOF 0
ENDMDL
MODEL 10
REMARK VINA RESULT:    -6.579      3.038      5.115
REMARK INTER + INTRA:          -6.579
REMARK INTER:                  -6.579
REMARK INTRA:                   0.000
REMARK UNBOUND:                 0.000
REMARK  Name = cpd179.pdb
REMARK  0 active torsions:
REMARK  status: ('A' for Active; 'I' for Inactive)
REMARK                            x       y       z     vdW  Elec       q    Type
REMARK                         _______ _______ _______ _____ _____    ______ ____
ROOT
ATOM      1 CL   UNL A   1      37.677 -34.917 -31.794  0.00  0.00    -0.083 Cl
ATOM      2  C   UNL A   1      36.483 -35.054 -30.530  0.00  0.00    +0.055 A 
ATOM      3  C   UNL A   1      36.584 -36.112 -29.611  0.00  0.00    -0.007 A 
ATOM      4  C   UNL A   1      35.581 -36.205 -28.651  0.00  0.00    +0.047 A 
ATOM      5  N   UNL A   1      34.567 -35.314 -28.554  0.00  0.00    -0.251 NA
ATOM      6  C   UNL A   1      34.492 -34.300 -29.428  0.00  0.00    +0.073 A 
ATOM      7  C   UNL A   1      33.434 -33.409 -29.303  0.00  0.00    -0.036 A 
ATOM      8  C   UNL A   1      33.270 -32.327 -30.169  0.00  0.00    -0.060 A 
ATOM      9  C   UNL A   1      34.185 -32.125 -31.192  0.00  0.00    -0.061 A 
ATOM     10  C   UNL A   1      35.255 -33.007 -31.335  0.00  0.00    -0.051 A 
ATOM     11  C   UNL A   1      35.428 -34.110 -30.457  0.00  0.00    +0.019 A 
ATOM     12  C   UNL A   1      35.580 -37.292 -27.605  0.00  0.00    -0.010 C 
ATOM     13  C   UNL A   1      36.416 -38.502 -28.001  0.00  0.00    -0.047 C 
ATOM     14  C   UNL A   1      37.791 -38.045 -28.463  0.00  0.00    -0.049 C 
ATOM     15  C   UNL A   1      37.678 -37.150 -29.697  0.00  0.00    -0.025 C 
ENDROOT
TORSDOF 0
ENDMDL
MODEL 11
REMARK VINA RESULT:    -6.041     19.422     20.235
REMARK INTER + INTRA:          -6.041
REMARK INTER:                  -6.041
REMARK INTRA:                   0.000
REMARK UNBOUND:                 0.000
REMARK  Name = cpd179.pdb
REMARK  0 active torsions:
REMARK  status: ('A' for Active; 'I' for Inactive)
REMARK                            x       y       z     vdW  Elec       q    Type
REMARK                         _______ _______ _______ _____ _____    ______ ____
ROOT
ATOM      1 CL   UNL A   1      46.673 -20.475 -37.922  0.00  0.00    -0.083 Cl
ATOM      2  C   UNL A   1      45.915 -21.096 -39.365  0.00  0.00    +0.055 A 
ATOM      3  C   UNL A   1      44.558 -20.815 -39.597  0.00  0.00    -0.007 A 
ATOM      4  C   UNL A   1      43.989 -21.373 -40.738  0.00  0.00    +0.047 A 
ATOM      5  N   UNL A   1      44.690 -22.121 -41.622  0.00  0.00    -0.251 NA
ATOM      6  C   UNL A   1      45.988 -22.369 -41.396  0.00  0.00    +0.073 A 
ATOM      7  C   UNL A   1      46.673 -23.146 -42.321  0.00  0.00    -0.036 A 
ATOM      8  C   UNL A   1      48.024 -23.461 -42.168  0.00  0.00    -0.060 A 
ATOM      9  C   UNL A   1      48.714 -22.990 -41.061  0.00  0.00    -0.061 A 
ATOM     10  C   UNL A   1      48.047 -22.208 -40.121  0.00  0.00    -0.051 A 
ATOM     11  C   UNL A   1      46.672 -21.882 -40.270  0.00  0.00    +0.019 A 
ATOM     12  C   UNL A   1      42.544 -21.140 -41.100  0.00  0.00    -0.010 C 
ATOM     13  C   UNL A   1      41.690 -20.718 -39.911  0.00  0.00    -0.047 C 
ATOM     14  C   UNL A   1      42.369 -19.573 -39.175  0.00  0.00    -0.049 C 
ATOM     15  C   UNL A   1      43.726 -20.013 -38.625  0.00  0.00    -0.025 C 
ENDROOT
TORSDOF 0
ENDMDL
MODEL 12
REMARK VINA RESULT:    -5.947     20.063     20.588
REMARK INTER + INTRA:          -5.947
REMARK INTER:                  -5.947
REMARK INTRA:                   0.000
REMARK UNBOUND:                 0.000
REMARK  Name = cpd179.pdb
REMARK  0 active torsions:
REMARK  status: ('A' for Active; 'I' for Inactive)
REMARK                            x       y       z     vdW  Elec       q    Type
REMARK                         _______ _______ _______ _____ _____    ______ ____
ROOT
ATOM      1 CL   UNL A   1      43.731 -20.983 -42.170  0.00  0.00    -0.083 Cl
ATOM      2  C   UNL A   1      45.043 -21.071 -41.024  0.00  0.00    +0.055 A 
ATOM      3  C   UNL A   1      44.992 -20.274 -39.868  0.00  0.00    -0.007 A 
ATOM      4  C   UNL A   1      46.085 -20.345 -39.010  0.00  0.00    +0.047 A 
ATOM      5  N   UNL A   1      47.142 -21.162 -39.227  0.00  0.00    -0.251 NA
ATOM      6  C   UNL A   1      47.171 -21.929 -40.326  0.00  0.00    +0.073 A 
ATOM      7  C   UNL A   1      48.274 -22.749 -40.520  0.00  0.00    -0.036 A 
ATOM      8  C   UNL A   1      48.395 -23.578 -41.636  0.00  0.00    -0.060 A 
ATOM      9  C   UNL A   1      47.388 -23.591 -42.590  0.00  0.00    -0.061 A 
ATOM     10  C   UNL A   1      46.270 -22.777 -42.415  0.00  0.00    -0.051 A 
ATOM     11  C   UNL A   1      46.141 -21.931 -41.281  0.00  0.00    +0.019 A 
ATOM     12  C   UNL A   1      46.147 -19.544 -37.734  0.00  0.00    -0.010 C 
ATOM     13  C   UNL A   1      45.222 -18.334 -37.743  0.00  0.00    -0.047 C 
ATOM     14  C   UNL A   1      43.827 -18.761 -38.176  0.00  0.00    -0.049 C 
ATOM     15  C   UNL A   1      43.850 -19.324 -39.597  0.00  0.00    -0.025 C 
ENDROOT
TORSDOF 0
ENDMDL
MODEL 13
REMARK VINA RESULT:    -5.867     23.041     24.601
REMARK INTER + INTRA:          -5.867
REMARK INTER:                  -5.867
REMARK INTRA:                   0.000
REMARK UNBOUND:                 0.000
REMARK  Name = cpd179.pdb
REMARK  0 active torsions:
REMARK  status: ('A' for Active; 'I' for Inactive)
REMARK                            x       y       z     vdW  Elec       q    Type
REMARK                         _______ _______ _______ _____ _____    ______ ____
ROOT
ATOM      1 CL   UNL A   1      56.610 -35.400 -50.777  0.00  0.00    -0.083 Cl
ATOM      2  C   UNL A   1      55.675 -35.906 -49.394  0.00  0.00    +0.055 A 
ATOM      3  C   UNL A   1      54.912 -37.082 -49.482  0.00  0.00    -0.007 A 
ATOM      4  C   UNL A   1      54.146 -37.417 -48.368  0.00  0.00    +0.047 A 
ATOM      5  N   UNL A   1      54.147 -36.689 -47.227  0.00  0.00    -0.251 NA
ATOM      6  C   UNL A   1      54.892 -35.577 -47.151  0.00  0.00    +0.073 A 
ATOM      7  C   UNL A   1      54.862 -34.852 -45.968  0.00  0.00    -0.036 A 
ATOM      8  C   UNL A   1      55.599 -33.680 -45.798  0.00  0.00    -0.060 A 
ATOM      9  C   UNL A   1      56.390 -33.213 -46.837  0.00  0.00    -0.061 A 
ATOM     10  C   UNL A   1      56.436 -33.926 -48.034  0.00  0.00    -0.051 A 
ATOM     11  C   UNL A   1      55.689 -35.120 -48.214  0.00  0.00    +0.019 A 
ATOM     12  C   UNL A   1      53.291 -38.658 -48.336  0.00  0.00    -0.010 C 
ATOM     13  C   UNL A   1      52.944 -39.180 -49.725  0.00  0.00    -0.047 C 
ATOM     14  C   UNL A   1      54.210 -39.285 -50.562  0.00  0.00    -0.049 C 
ATOM     15  C   UNL A   1      54.853 -37.910 -50.743  0.00  0.00    -0.025 C 
ENDROOT
TORSDOF 0
ENDMDL
MODEL 14
REMARK VINA RESULT:    -5.736     19.873     21.686
REMARK INTER + INTRA:          -5.736
REMARK INTER:                  -5.736
REMARK INTRA:                   0.000
REMARK UNBOUND:                 0.000
REMARK  Name = cpd179.pdb
REMARK  0 active torsions:
REMARK  status: ('A' for Active; 'I' for Inactive)
REMARK                            x       y       z     vdW  Elec       q    Type
REMARK                         _______ _______ _______ _____ _____    ______ ____
ROOT
ATOM      1 CL   UNL A   1      47.371 -19.661 -38.053  0.00  0.00    -0.083 Cl
ATOM      2  C   UNL A   1      46.617 -19.888 -39.610  0.00  0.00    +0.055 A 
ATOM      3  C   UNL A   1      45.780 -18.879 -40.115  0.00  0.00    -0.007 A 
ATOM      4  C   UNL A   1      45.165 -19.129 -41.338  0.00  0.00    +0.047 A 
ATOM      5  N   UNL A   1      45.375 -20.260 -42.052  0.00  0.00    -0.251 NA
ATOM      6  C   UNL A   1      46.189 -21.208 -41.565  0.00  0.00    +0.073 A 
ATOM      7  C   UNL A   1      46.375 -22.358 -42.321  0.00  0.00    -0.036 A 
ATOM      8  C   UNL A   1      47.198 -23.400 -41.894  0.00  0.00    -0.060 A 
ATOM      9  C   UNL A   1      47.857 -23.297 -40.678  0.00  0.00    -0.061 A 
ATOM     10  C   UNL A   1      47.686 -22.151 -39.903  0.00  0.00    -0.051 A 
ATOM     11  C   UNL A   1      46.849 -21.086 -40.332  0.00  0.00    +0.019 A 
ATOM     12  C   UNL A   1      44.250 -18.123 -41.988  0.00  0.00    -0.010 C 
ATOM     13  C   UNL A   1      43.675 -17.114 -41.002  0.00  0.00    -0.047 C 
ATOM     14  C   UNL A   1      44.798 -16.524 -40.161  0.00  0.00    -0.049 C 
ATOM     15  C   UNL A   1      45.490 -17.614 -39.343  0.00  0.00    -0.025 C 
ENDROOT
TORSDOF 0
ENDMDL
MODEL 15
REMARK VINA RESULT:    -5.685     22.752     25.370
REMARK INTER + INTRA:          -5.685
REMARK INTER:                  -5.685
REMARK INTRA:                   0.000
REMARK UNBOUND:                 0.000
REMARK  Name = cpd179.pdb
REMARK  0 active torsions:
REMARK  status: ('A' for Active; 'I' for Inactive)
REMARK                            x       y       z     vdW  Elec       q    Type
REMARK                         _______ _______ _______ _____ _____    ______ ____
ROOT
ATOM      1 CL   UNL A   1      53.588 -38.165 -48.450  0.00  0.00    -0.083 Cl
ATOM      2  C   UNL A   1      54.726 -36.893 -48.805  0.00  0.00    +0.055 A 
ATOM      3  C   UNL A   1      55.361 -36.877 -50.058  0.00  0.00    -0.007 A 
ATOM      4  C   UNL A   1      56.296 -35.869 -50.275  0.00  0.00    +0.047 A 
ATOM      5  N   UNL A   1      56.573 -34.911 -49.360  0.00  0.00    -0.251 NA
ATOM      6  C   UNL A   1      55.949 -34.929 -48.173  0.00  0.00    +0.073 A 
ATOM      7  C   UNL A   1      56.264 -33.935 -47.257  0.00  0.00    -0.036 A 
ATOM      8  C   UNL A   1      55.670 -33.875 -45.995  0.00  0.00    -0.060 A 
ATOM      9  C   UNL A   1      54.735 -34.833 -45.634  0.00  0.00    -0.061 A 
ATOM     10  C   UNL A   1      54.402 -35.839 -46.539  0.00  0.00    -0.051 A 
ATOM     11  C   UNL A   1      55.003 -35.906 -47.825  0.00  0.00    +0.019 A 
ATOM     12  C   UNL A   1      57.039 -35.741 -51.580  0.00  0.00    -0.010 C 
ATOM     13  C   UNL A   1      57.069 -37.037 -52.380  0.00  0.00    -0.047 C 
ATOM     14  C   UNL A   1      55.662 -37.606 -52.486  0.00  0.00    -0.049 C 
ATOM     15  C   UNL A   1      55.109 -37.941 -51.100  0.00  0.00    -0.025 C 
ENDROOT
TORSDOF 0
ENDMDL
MODEL 16
REMARK VINA RESULT:    -5.580     35.984     37.025
REMARK INTER + INTRA:          -5.580
REMARK INTER:                  -5.580
REMARK INTRA:                   0.000
REMARK UNBOUND:                 0.000
REMARK  Name = cpd179.pdb
REMARK  0 active torsions:
REMARK  status: ('A' for Active; 'I' for Inactive)
REMARK                            x       y       z     vdW  Elec       q    Type
REMARK                         _______ _______ _______ _____ _____    ______ ____
ROOT
ATOM      1 CL   UNL A   1      64.245 -20.486  -7.436  0.00  0.00    -0.083 Cl
ATOM      2  C   UNL A   1      64.087 -22.154  -6.951  0.00  0.00    +0.055 A 
ATOM      3  C   UNL A   1      63.567 -23.083  -7.867  0.00  0.00    -0.007 A 
ATOM      4  C   UNL A   1      63.417 -24.391  -7.416  0.00  0.00    +0.047 A 
ATOM      5  N   UNL A   1      63.782 -24.790  -6.175  0.00  0.00    -0.251 NA
ATOM      6  C   UNL A   1      64.291 -23.896  -5.315  0.00  0.00    +0.073 A 
ATOM      7  C   UNL A   1      64.647 -24.339  -4.049  0.00  0.00    -0.036 A 
ATOM      8  C   UNL A   1      65.179 -23.481  -3.086  0.00  0.00    -0.060 A 
ATOM      9  C   UNL A   1      65.362 -22.141  -3.390  0.00  0.00    -0.061 A 
ATOM     10  C   UNL A   1      65.012 -21.674  -4.657  0.00  0.00    -0.051 A 
ATOM     11  C   UNL A   1      64.470 -22.542  -5.642  0.00  0.00    +0.019 A 
ATOM     12  C   UNL A   1      62.877 -25.482  -8.306  0.00  0.00    -0.010 C 
ATOM     13  C   UNL A   1      62.065 -24.948  -9.479  0.00  0.00    -0.047 C 
ATOM     14  C   UNL A   1      62.851 -23.858 -10.191  0.00  0.00    -0.049 C 
ATOM     15  C   UNL A   1      63.117 -22.681  -9.252  0.00  0.00    -0.025 C 
ENDROOT
TORSDOF 0
ENDMDL
MODEL 17
REMARK VINA RESULT:    -5.545     23.207     26.125
REMARK INTER + INTRA:          -5.545
REMARK INTER:                  -5.545
REMARK INTRA:                   0.000
REMARK UNBOUND:                 0.000
REMARK  Name = cpd179.pdb
REMARK  0 active torsions:
REMARK  status: ('A' for Active; 'I' for Inactive)
REMARK                            x       y       z     vdW  Elec       q    Type
REMARK                         _______ _______ _______ _____ _____    ______ ____
ROOT
ATOM      1 CL   UNL A   1      54.252 -37.862 -49.276  0.00  0.00    -0.083 Cl
ATOM      2  C   UNL A   1      55.215 -36.410 -49.356  0.00  0.00    +0.055 A 
ATOM      3  C   UNL A   1      55.421 -35.665 -48.182  0.00  0.00    -0.007 A 
ATOM      4  C   UNL A   1      56.156 -34.489 -48.307  0.00  0.00    +0.047 A 
ATOM      5  N   UNL A   1      56.694 -34.077 -49.479  0.00  0.00    -0.251 NA
ATOM      6  C   UNL A   1      56.503 -34.806 -50.588  0.00  0.00    +0.073 A 
ATOM      7  C   UNL A   1      57.064 -34.349 -51.773  0.00  0.00    -0.036 A 
ATOM      8  C   UNL A   1      56.913 -35.036 -52.978  0.00  0.00    -0.060 A 
ATOM      9  C   UNL A   1      56.182 -36.214 -53.006  0.00  0.00    -0.061 A 
ATOM     10  C   UNL A   1      55.611 -36.693 -51.828  0.00  0.00    -0.051 A 
ATOM     11  C   UNL A   1      55.760 -35.998 -50.597  0.00  0.00    +0.019 A 
ATOM     12  C   UNL A   1      56.451 -33.607 -47.122  0.00  0.00    -0.010 C 
ATOM     13  C   UNL A   1      55.485 -33.820 -45.963  0.00  0.00    -0.047 C 
ATOM     14  C   UNL A   1      55.375 -35.306 -45.656  0.00  0.00    -0.049 C 
ATOM     15  C   UNL A   1      54.815 -36.066 -46.858  0.00  0.00    -0.025 C 
ENDROOT
TORSDOF 0
ENDMDL
MODEL 18
REMARK VINA RESULT:    -5.523     19.566     21.656
REMARK INTER + INTRA:          -5.523
REMARK INTER:                  -5.523
REMARK INTRA:                   0.000
REMARK UNBOUND:                 0.000
REMARK  Name = cpd179.pdb
REMARK  0 active torsions:
REMARK  status: ('A' for Active; 'I' for Inactive)
REMARK                            x       y       z     vdW  Elec       q    Type
REMARK                         _______ _______ _______ _____ _____    ______ ____
ROOT
ATOM      1 CL   UNL A   1      43.451 -21.712 -39.753  0.00  0.00    -0.083 Cl
ATOM      2  C   UNL A   1      44.756 -20.732 -40.368  0.00  0.00    +0.055 A 
ATOM      3  C   UNL A   1      44.577 -19.342 -40.462  0.00  0.00    -0.007 A 
ATOM      4  C   UNL A   1      45.631 -18.610 -41.003  0.00  0.00    +0.047 A 
ATOM      5  N   UNL A   1      46.798 -19.175 -41.391  0.00  0.00    -0.251 NA
ATOM      6  C   UNL A   1      46.961 -20.501 -41.282  0.00  0.00    +0.073 A 
ATOM      7  C   UNL A   1      48.169 -21.046 -41.697  0.00  0.00    -0.036 A 
ATOM      8  C   UNL A   1      48.427 -22.415 -41.626  0.00  0.00    -0.060 A 
ATOM      9  C   UNL A   1      47.455 -23.270 -41.129  0.00  0.00    -0.061 A 
ATOM     10  C   UNL A   1      46.235 -22.744 -40.705  0.00  0.00    -0.051 A 
ATOM     11  C   UNL A   1      45.965 -21.351 -40.774  0.00  0.00    +0.019 A 
ATOM     12  C   UNL A   1      45.564 -17.111 -41.150  0.00  0.00    -0.010 C 
ATOM     13  C   UNL A   1      44.139 -16.575 -41.156  0.00  0.00    -0.047 C 
ATOM     14  C   UNL A   1      43.372 -17.146 -39.973  0.00  0.00    -0.049 C 
ATOM     15  C   UNL A   1      43.283 -18.669 -40.072  0.00  0.00    -0.025 C 
ENDROOT
TORSDOF 0
ENDMDL
MODEL 19
REMARK VINA RESULT:    -5.473     31.925     33.625
REMARK INTER + INTRA:          -5.473
REMARK INTER:                  -5.473
REMARK INTRA:                   0.000
REMARK UNBOUND:                 0.000
REMARK  Name = cpd179.pdb
REMARK  0 active torsions:
REMARK  status: ('A' for Active; 'I' for Inactive)
REMARK                            x       y       z     vdW  Elec       q    Type
REMARK                         _______ _______ _______ _____ _____    ______ ____
ROOT
ATOM      1 CL   UNL A   1      63.847 -11.392 -28.651  0.00  0.00    -0.083 Cl
ATOM      2  C   UNL A   1      63.422 -12.775 -29.625  0.00  0.00    +0.055 A 
ATOM      3  C   UNL A   1      64.391 -13.766 -29.860  0.00  0.00    -0.007 A 
ATOM      4  C   UNL A   1      64.017 -14.825 -30.682  0.00  0.00    +0.047 A 
ATOM      5  N   UNL A   1      62.777 -14.946 -31.211  0.00  0.00    -0.251 NA
ATOM      6  C   UNL A   1      61.858 -14.001 -30.966  0.00  0.00    +0.073 A 
ATOM      7  C   UNL A   1      60.599 -14.155 -31.532  0.00  0.00    -0.036 A 
ATOM      8  C   UNL A   1      59.581 -13.221 -31.338  0.00  0.00    -0.060 A 
ATOM      9  C   UNL A   1      59.821 -12.100 -30.558  0.00  0.00    -0.061 A 
ATOM     10  C   UNL A   1      61.077 -11.926 -29.979  0.00  0.00    -0.051 A 
ATOM     11  C   UNL A   1      62.119 -12.872 -30.172  0.00  0.00    +0.019 A 
ATOM     12  C   UNL A   1      64.963 -15.953 -31.004  0.00  0.00    -0.010 C 
ATOM     13  C   UNL A   1      66.427 -15.580 -30.805  0.00  0.00    -0.047 C 
ATOM     14  C   UNL A   1      66.612 -14.948 -29.433  0.00  0.00    -0.049 C 
ATOM     15  C   UNL A   1      65.796 -13.661 -29.318  0.00  0.00    -0.025 C 
ENDROOT
TORSDOF 0
ENDMDL
MODEL 20
REMARK VINA RESULT:    -5.403     20.232     21.448
REMARK INTER + INTRA:          -5.403
REMARK INTER:                  -5.403
REMARK INTRA:                   0.000
REMARK UNBOUND:                 0.000
REMARK  Name = cpd179.pdb
REMARK  0 active torsions:
REMARK  status: ('A' for Active; 'I' for Inactive)
REMARK                            x       y       z     vdW  Elec       q    Type
REMARK                         _______ _______ _______ _____ _____    ______ ____
ROOT
ATOM      1 CL   UNL A   1      44.223 -17.878 -41.447  0.00  0.00    -0.083 Cl
ATOM      2  C   UNL A   1      45.271 -18.987 -40.603  0.00  0.00    +0.055 A 
ATOM      3  C   UNL A   1      45.807 -18.606 -39.361  0.00  0.00    -0.007 A 
ATOM      4  C   UNL A   1      46.674 -19.507 -38.750  0.00  0.00    +0.047 A 
ATOM      5  N   UNL A   1      46.975 -20.716 -39.279  0.00  0.00    -0.251 NA
ATOM      6  C   UNL A   1      46.445 -21.073 -40.458  0.00  0.00    +0.073 A 
ATOM      7  C   UNL A   1      46.782 -22.318 -40.973  0.00  0.00    -0.036 A 
ATOM      8  C   UNL A   1      46.283 -22.773 -42.194  0.00  0.00    -0.060 A 
ATOM      9  C   UNL A   1      45.424 -21.967 -42.926  0.00  0.00    -0.061 A 
ATOM     10  C   UNL A   1      45.071 -20.715 -42.427  0.00  0.00    -0.051 A 
ATOM     11  C   UNL A   1      45.574 -20.244 -41.184  0.00  0.00    +0.019 A 
ATOM     12  C   UNL A   1      47.309 -19.217 -37.414  0.00  0.00    -0.010 C 
ATOM     13  C   UNL A   1      47.339 -17.732 -37.076  0.00  0.00    -0.047 C 
ATOM     14  C   UNL A   1      45.956 -17.133 -37.283  0.00  0.00    -0.049 C 
ATOM     15  C   UNL A   1      45.526 -17.256 -38.745  0.00  0.00    -0.025 C 
ENDROOT
TORSDOF 0
ENDMDL
