REMARK  Name = cpd179.pdb
REMARK  0 active torsions:
REMARK  status: ('A' for Active; 'I' for Inactive)
REMARK                            x       y       z     vdW  Elec       q    Type
REMARK                         _______ _______ _______ _____ _____    ______ ____
ROOT
ATOM      1 CL   UNL A   1       1.873  -2.167  -0.152  0.00  0.00    -0.083 Cl
ATOM      2  C   UNL A   1       1.883  -0.427  -0.037  0.00  0.00    +0.055 A 
ATOM      3  C   UNL A   1       0.658   0.258   0.028  0.00  0.00    -0.007 A 
ATOM      4  C   UNL A   1       0.719   1.648   0.071  0.00  0.00    +0.047 A 
ATOM      5  N   UNL A   1       1.885   2.335   0.092  0.00  0.00    -0.251 NA
ATOM      6  C   UNL A   1       3.047   1.668   0.045  0.00  0.00    +0.073 A 
ATOM      7  C   UNL A   1       4.223   2.406   0.061  0.00  0.00    -0.036 A 
ATOM      8  C   UNL A   1       5.479   1.800   0.010  0.00  0.00    -0.060 A 
ATOM      9  C   UNL A   1       5.569   0.418  -0.060  0.00  0.00    -0.061 A 
ATOM     10  C   UNL A   1       4.401  -0.343  -0.076  0.00  0.00    -0.051 A 
ATOM     11  C   UNL A   1       3.119   0.267  -0.024  0.00  0.00    +0.019 A 
ATOM     12  C   UNL A   1      -0.525   2.496   0.149  0.00  0.00    -0.010 C 
ATOM     13  C   UNL A   1      -1.774   1.770  -0.335  0.00  0.00    -0.047 C 
ATOM     14  C   UNL A   1      -1.870   0.411   0.342  0.00  0.00    -0.049 C 
ATOM     15  C   UNL A   1      -0.669  -0.461  -0.024  0.00  0.00    -0.025 C 
ENDROOT
TORSDOF 0
