@<TRIPOS>MOLECULE
*****
 15 17 0 0 0
SMALL
GASTEIGER

@<TRIPOS>ATOM
      1 CL          1.7321   -1.0000    0.0000 Cl      1  UNL1       -0.0825
      2 C           1.7321    0.0000    0.0000 C.ar    1  UNL1        0.0562
      3 C           0.8660    0.5000    0.0000 C.ar    1  UNL1        0.0020
      4 C           0.8660    1.5000    0.0000 C.ar    1  UNL1        0.0558
      5 N           1.7321    2.0000    0.0000 N.ar    1  UNL1       -0.2499
      6 C           2.5981    1.5000    0.0000 C.ar    1  UNL1        0.0817
      7 C           3.4641    2.0000    0.0000 C.ar    1  UNL1        0.0191
      8 C           4.3301    1.5000    0.0000 C.ar    1  UNL1        0.0015
      9 C           4.3301    0.5000    0.0000 C.ar    1  UNL1        0.0001
     10 C           3.4641    0.0000    0.0000 C.ar    1  UNL1        0.0023
     11 C           2.5981    0.5000    0.0000 C.ar    1  UNL1        0.0279
     12 C           0.0000    2.0000    0.0000 C.3     1  UNL1        0.0455
     13 C          -0.8660    1.5000    0.0000 C.3     1  UNL1        0.0066
     14 C          -0.8660    0.5000    0.0000 C.3     1  UNL1        0.0051
     15 C           0.0000    0.0000    0.0000 C.3     1  UNL1        0.0284
@<TRIPOS>BOND
     1     1     2    1
     2     2     3   ar
     3     3     4   ar
     4     4     5   ar
     5     5     6   ar
     6     6     7   ar
     7     7     8   ar
     8     8     9   ar
     9     9    10   ar
    10    10    11   ar
    11     2    11   ar
    12     6    11   ar
    13     4    12    1
    14    12    13    1
    15    13    14    1
    16    14    15    1
    17     3    15    1
