MODEL 1
REMARK VINA RESULT:    -7.503      0.000      0.000
REMARK INTER + INTRA:         -10.920
REMARK INTER:                 -10.354
REMARK INTRA:                  -0.566
REMARK UNBOUND:                -0.566
REMARK  Name = cpd316.pdb
REMARK  9 active torsions:
REMARK  status: ('A' for Active; 'I' for Inactive)
REMARK    1  A    between atoms: C_1  and  C_2
REMARK    2  A    between atoms: C_2  and  O_3
REMARK    3  A    between atoms: O_3  and  C_4
REMARK    4  A    between atoms: C_4  and  C_6
REMARK    5  A    between atoms: C_6  and  C_7
REMARK    6  A    between atoms: C_7  and  N_8
REMARK    7  A    between atoms: C_14  and  O_15
REMARK    8  A    between atoms: C_20  and  O_21
REMARK    9  A    between atoms: O_21  and  C_22
REMARK                            x       y       z     vdW  Elec       q    Type
REMARK                         _______ _______ _______ _____ _____    ______ ____
ROOT
ATOM      1  N   UNL     1      36.556 -35.525 -31.118  0.00  0.00    -0.298 N 
ATOM      2  C   UNL     1      35.357 -36.243 -31.581  0.00  0.00    +0.000 C 
ATOM      3  C   UNL     1      34.542 -36.876 -30.422  0.00  0.00    -0.023 C 
ATOM      4  C   UNL     1      34.669 -36.143 -29.062  0.00  0.00    +0.056 C 
ATOM      5  C   UNL     1      35.935 -36.557 -28.352  0.00  0.00    -0.071 C 
ATOM      6  C   UNL     1      35.929 -37.629 -27.532  0.00  0.00    -0.059 C 
ATOM      7  C   UNL     1      34.690 -38.434 -27.198  0.00  0.00    +0.077 C 
ATOM      8  C   UNL     1      33.363 -37.865 -27.750  0.00  0.00    +0.015 C 
ATOM      9  C   UNL     1      33.556 -36.379 -28.011  0.00  0.00    +0.116 C 
ATOM     10  O   UNL     1      32.399 -35.637 -28.411  0.00  0.00    -0.484 OA
ATOM     11  C   UNL     1      32.994 -34.481 -28.899  0.00  0.00    +0.167 A 
ATOM     12  C   UNL     1      32.369 -33.260 -29.092  0.00  0.00    +0.162 A 
ATOM     13  C   UNL     1      33.105 -32.270 -29.750  0.00  0.00    -0.016 A 
ATOM     14  C   UNL     1      34.399 -32.523 -30.245  0.00  0.00    -0.053 A 
ATOM     15  C   UNL     1      35.007 -33.777 -30.079  0.00  0.00    -0.026 A 
ATOM     16  C   UNL     1      34.323 -34.710 -29.309  0.00  0.00    +0.016 A 
ATOM     17  C   UNL     1      36.286 -34.093 -30.826  0.00  0.00    +0.024 C 
ATOM     18  H   UNL     1      36.822 -35.987 -30.248  0.00  0.00    +0.000 HD
ENDROOT
BRANCH   7  19
ATOM     19  O   UNL     1      34.621 -38.461 -25.774  0.00  0.00    -0.388 OA
ATOM     20  H   UNL     1      35.389 -37.998 -25.404  0.00  0.00    +0.000 HD
ENDBRANCH   7  19
BRANCH  12  21
ATOM     21  O   UNL     1      31.105 -32.889 -28.739  0.00  0.00    -0.491 OA
ATOM     22  C   UNL     1      30.677 -31.598 -29.152  0.00  0.00    +0.079 C 
ENDBRANCH  12  21
BRANCH   1  23
ATOM     23  C   UNL     1      37.684 -35.633 -32.061  0.00  0.00    +0.009 C 
BRANCH  23  24
ATOM     24  C   UNL     1      39.025 -35.753 -31.336  0.00  0.00    +0.058 C 
BRANCH  24  25
ATOM     25  C   UNL     1      40.086 -34.955 -32.051  0.00  0.00    +0.308 C 
ATOM     26  O   UNL     1      40.161 -33.735 -32.074  0.00  0.00    -0.251 OA
BRANCH  25  27
ATOM     27  O   UNL     1      40.941 -35.803 -32.693  0.00  0.00    -0.465 OA
BRANCH  27  29
ATOM     28  C   UNL     1      42.327 -37.593 -31.927  0.00  0.00    -0.031 C 
ATOM     29  C   UNL     1      42.142 -36.088 -31.965  0.00  0.00    +0.090 C 
ENDBRANCH  27  29
ENDBRANCH  25  27
ENDBRANCH  24  25
ENDBRANCH  23  24
ENDBRANCH   1  23
TORSDOF 7
ENDMDL
MODEL 2
REMARK VINA RESULT:    -7.484      1.980      6.983
REMARK INTER + INTRA:         -10.893
REMARK INTER:                  -9.419
REMARK INTRA:                  -1.474
REMARK UNBOUND:                -0.566
REMARK  Name = cpd316.pdb
REMARK  9 active torsions:
REMARK  status: ('A' for Active; 'I' for Inactive)
REMARK    1  A    between atoms: C_1  and  C_2
REMARK    2  A    between atoms: C_2  and  O_3
REMARK    3  A    between atoms: O_3  and  C_4
REMARK    4  A    between atoms: C_4  and  C_6
REMARK    5  A    between atoms: C_6  and  C_7
REMARK    6  A    between atoms: C_7  and  N_8
REMARK    7  A    between atoms: C_14  and  O_15
REMARK    8  A    between atoms: C_20  and  O_21
REMARK    9  A    between atoms: O_21  and  C_22
REMARK                            x       y       z     vdW  Elec       q    Type
REMARK                         _______ _______ _______ _____ _____    ______ ____
ROOT
ATOM      1  N   UNL     1      36.059 -38.979 -29.058  0.00  0.00    -0.298 N 
ATOM      2  C   UNL     1      35.724 -38.822 -30.484  0.00  0.00    +0.000 C 
ATOM      3  C   UNL     1      35.383 -37.358 -30.870  0.00  0.00    -0.023 C 
ATOM      4  C   UNL     1      36.068 -36.278 -29.994  0.00  0.00    +0.056 C 
ATOM      5  C   UNL     1      35.307 -36.079 -28.706  0.00  0.00    -0.071 C 
ATOM      6  C   UNL     1      34.300 -35.182 -28.649  0.00  0.00    -0.059 C 
ATOM      7  C   UNL     1      33.907 -34.274 -29.795  0.00  0.00    +0.077 C 
ATOM      8  C   UNL     1      34.836 -34.328 -31.030  0.00  0.00    +0.015 C 
ATOM      9  C   UNL     1      36.193 -34.850 -30.580  0.00  0.00    +0.116 C 
ATOM     10  O   UNL     1      37.239 -34.857 -31.557  0.00  0.00    -0.484 OA
ATOM     11  C   UNL     1      38.156 -35.699 -30.941  0.00  0.00    +0.167 A 
ATOM     12  C   UNL     1      39.504 -35.797 -31.242  0.00  0.00    +0.162 A 
ATOM     13  C   UNL     1      40.219 -36.825 -30.619  0.00  0.00    -0.016 A 
ATOM     14  C   UNL     1      39.583 -37.752 -29.772  0.00  0.00    -0.053 A 
ATOM     15  C   UNL     1      38.208 -37.667 -29.505  0.00  0.00    -0.026 A 
ATOM     16  C   UNL     1      37.534 -36.566 -30.021  0.00  0.00    +0.016 A 
ATOM     17  C   UNL     1      37.512 -38.808 -28.792  0.00  0.00    +0.024 C 
ATOM     18  H   UNL     1      35.554 -38.231 -28.583  0.00  0.00    +0.000 HD
ENDROOT
BRANCH   7  19
ATOM     19  O   UNL     1      33.927 -32.952 -29.263  0.00  0.00    -0.388 OA
ATOM     20  H   UNL     1      34.585 -32.421 -29.738  0.00  0.00    +0.000 HD
ENDBRANCH   7  19
BRANCH  12  21
ATOM     21  O   UNL     1      40.242 -35.027 -32.092  0.00  0.00    -0.491 OA
ATOM     22  C   UNL     1      41.294 -35.674 -32.795  0.00  0.00    +0.079 C 
ENDBRANCH  12  21
BRANCH   1  23
ATOM     23  C   UNL     1      35.603 -40.267 -28.505  0.00  0.00    +0.009 C 
BRANCH  23  24
ATOM     24  C   UNL     1      34.135 -40.217 -28.079  0.00  0.00    +0.058 C 
BRANCH  24  25
ATOM     25  C   UNL     1      33.897 -39.062 -27.138  0.00  0.00    +0.308 C 
ATOM     26  O   UNL     1      34.674 -38.677 -26.277  0.00  0.00    -0.251 OA
BRANCH  25  27
ATOM     27  O   UNL     1      32.667 -38.523 -27.378  0.00  0.00    -0.465 OA
BRANCH  27  29
ATOM     28  C   UNL     1      31.627 -37.495 -29.267  0.00  0.00    -0.031 C 
ATOM     29  C   UNL     1      32.151 -38.794 -28.687  0.00  0.00    +0.090 C 
ENDBRANCH  27  29
ENDBRANCH  25  27
ENDBRANCH  24  25
ENDBRANCH  23  24
ENDBRANCH   1  23
TORSDOF 7
ENDMDL
MODEL 3
REMARK VINA RESULT:    -7.376      2.689      6.983
REMARK INTER + INTRA:         -10.745
REMARK INTER:                 -10.148
REMARK INTRA:                  -0.596
REMARK UNBOUND:                -0.566
REMARK  Name = cpd316.pdb
REMARK  9 active torsions:
REMARK  status: ('A' for Active; 'I' for Inactive)
REMARK    1  A    between atoms: C_1  and  C_2
REMARK    2  A    between atoms: C_2  and  O_3
REMARK    3  A    between atoms: O_3  and  C_4
REMARK    4  A    between atoms: C_4  and  C_6
REMARK    5  A    between atoms: C_6  and  C_7
REMARK    6  A    between atoms: C_7  and  N_8
REMARK    7  A    between atoms: C_14  and  O_15
REMARK    8  A    between atoms: C_20  and  O_21
REMARK    9  A    between atoms: O_21  and  C_22
REMARK                            x       y       z     vdW  Elec       q    Type
REMARK                         _______ _______ _______ _____ _____    ______ ____
ROOT
ATOM      1  N   UNL     1      35.544 -38.701 -28.822  0.00  0.00    -0.298 N 
ATOM      2  C   UNL     1      35.216 -38.621 -30.255  0.00  0.00    +0.000 C 
ATOM      3  C   UNL     1      34.969 -37.168 -30.742  0.00  0.00    -0.023 C 
ATOM      4  C   UNL     1      35.724 -36.077 -29.940  0.00  0.00    +0.056 C 
ATOM      5  C   UNL     1      34.980 -35.741 -28.671  0.00  0.00    -0.071 C 
ATOM      6  C   UNL     1      34.033 -34.779 -28.677  0.00  0.00    -0.059 C 
ATOM      7  C   UNL     1      33.697 -33.929 -29.883  0.00  0.00    +0.077 C 
ATOM      8  C   UNL     1      34.618 -34.127 -31.109  0.00  0.00    +0.015 C 
ATOM      9  C   UNL     1      35.939 -34.703 -30.622  0.00  0.00    +0.116 C 
ATOM     10  O   UNL     1      36.981 -34.844 -31.594  0.00  0.00    -0.484 OA
ATOM     11  C   UNL     1      37.843 -35.699 -30.920  0.00  0.00    +0.167 A 
ATOM     12  C   UNL     1      39.181 -35.904 -31.211  0.00  0.00    +0.162 A 
ATOM     13  C   UNL     1      39.830 -36.931 -30.517  0.00  0.00    -0.016 A 
ATOM     14  C   UNL     1      39.137 -37.755 -29.610  0.00  0.00    -0.053 A 
ATOM     15  C   UNL     1      37.771 -37.564 -29.353  0.00  0.00    -0.026 A 
ATOM     16  C   UNL     1      37.169 -36.459 -29.944  0.00  0.00    +0.016 A 
ATOM     17  C   UNL     1      37.005 -38.606 -28.565  0.00  0.00    +0.024 C 
ATOM     18  H   UNL     1      35.089 -37.891 -28.400  0.00  0.00    +0.000 HD
ENDROOT
BRANCH   7  19
ATOM     19  O   UNL     1      33.802 -32.577 -29.443  0.00  0.00    -0.388 OA
ATOM     20  H   UNL     1      33.881 -32.557 -28.477  0.00  0.00    +0.000 HD
ENDBRANCH   7  19
BRANCH  12  21
ATOM     21  O   UNL     1      39.965 -35.243 -32.111  0.00  0.00    -0.491 OA
ATOM     22  C   UNL     1      40.436 -33.957 -31.728  0.00  0.00    +0.079 C 
ENDBRANCH  12  21
BRANCH   1  23
ATOM     23  C   UNL     1      35.007 -39.916 -28.183  0.00  0.00    +0.009 C 
BRANCH  23  24
ATOM     24  C   UNL     1      35.699 -41.182 -28.693  0.00  0.00    +0.058 C 
BRANCH  24  25
ATOM     25  C   UNL     1      36.341 -41.930 -27.552  0.00  0.00    +0.308 C 
ATOM     26  O   UNL     1      37.538 -42.149 -27.431  0.00  0.00    -0.251 OA
BRANCH  25  27
ATOM     27  O   UNL     1      35.378 -42.351 -26.682  0.00  0.00    -0.465 OA
BRANCH  27  29
ATOM     28  C   UNL     1      33.208 -43.342 -26.821  0.00  0.00    -0.031 C 
ATOM     29  C   UNL     1      34.687 -43.535 -27.098  0.00  0.00    +0.090 C 
ENDBRANCH  27  29
ENDBRANCH  25  27
ENDBRANCH  24  25
ENDBRANCH  23  24
ENDBRANCH   1  23
TORSDOF 7
ENDMDL
MODEL 4
REMARK VINA RESULT:    -7.341      2.059      7.203
REMARK INTER + INTRA:         -10.696
REMARK INTER:                  -9.799
REMARK INTRA:                  -0.897
REMARK UNBOUND:                -0.566
REMARK  Name = cpd316.pdb
REMARK  9 active torsions:
REMARK  status: ('A' for Active; 'I' for Inactive)
REMARK    1  A    between atoms: C_1  and  C_2
REMARK    2  A    between atoms: C_2  and  O_3
REMARK    3  A    between atoms: O_3  and  C_4
REMARK    4  A    between atoms: C_4  and  C_6
REMARK    5  A    between atoms: C_6  and  C_7
REMARK    6  A    between atoms: C_7  and  N_8
REMARK    7  A    between atoms: C_14  and  O_15
REMARK    8  A    between atoms: C_20  and  O_21
REMARK    9  A    between atoms: O_21  and  C_22
REMARK                            x       y       z     vdW  Elec       q    Type
REMARK                         _______ _______ _______ _____ _____    ______ ____
ROOT
ATOM      1  N   UNL     1      35.982 -38.973 -28.974  0.00  0.00    -0.298 N 
ATOM      2  C   UNL     1      35.712 -38.873 -30.418  0.00  0.00    +0.000 C 
ATOM      3  C   UNL     1      35.413 -37.422 -30.881  0.00  0.00    -0.023 C 
ATOM      4  C   UNL     1      36.077 -36.316 -30.023  0.00  0.00    +0.056 C 
ATOM      5  C   UNL     1      35.264 -36.049 -28.779  0.00  0.00    -0.071 C 
ATOM      6  C   UNL     1      34.270 -35.136 -28.805  0.00  0.00    -0.059 C 
ATOM      7  C   UNL     1      33.943 -34.273 -30.005  0.00  0.00    +0.077 C 
ATOM      8  C   UNL     1      34.924 -34.394 -31.193  0.00  0.00    +0.015 C 
ATOM      9  C   UNL     1      36.251 -34.916 -30.662  0.00  0.00    +0.116 C 
ATOM     10  O   UNL     1      37.339 -34.981 -31.591  0.00  0.00    -0.484 OA
ATOM     11  C   UNL     1      38.214 -35.809 -30.900  0.00  0.00    +0.167 A 
ATOM     12  C   UNL     1      39.572 -35.940 -31.137  0.00  0.00    +0.162 A 
ATOM     13  C   UNL     1      40.241 -36.950 -30.440  0.00  0.00    -0.016 A 
ATOM     14  C   UNL     1      39.553 -37.830 -29.583  0.00  0.00    -0.053 A 
ATOM     15  C   UNL     1      38.170 -37.714 -29.381  0.00  0.00    -0.026 A 
ATOM     16  C   UNL     1      37.538 -36.625 -29.972  0.00  0.00    +0.016 A 
ATOM     17  C   UNL     1      37.425 -38.812 -28.651  0.00  0.00    +0.024 C 
ATOM     18  H   UNL     1      35.469 -38.198 -28.554  0.00  0.00    +0.000 HD
ENDROOT
BRANCH   7  19
ATOM     19  O   UNL     1      33.962 -32.929 -29.529  0.00  0.00    -0.388 OA
ATOM     20  H   UNL     1      33.196 -32.450 -29.883  0.00  0.00    +0.000 HD
ENDBRANCH   7  19
BRANCH  12  21
ATOM     21  O   UNL     1      40.359 -35.218 -31.986  0.00  0.00    -0.491 OA
ATOM     22  C   UNL     1      41.064 -35.946 -32.982  0.00  0.00    +0.079 C 
ENDBRANCH  12  21
BRANCH   1  23
ATOM     23  C   UNL     1      35.481 -40.229 -28.387  0.00  0.00    +0.009 C 
BRANCH  23  24
ATOM     24  C   UNL     1      33.985 -40.156 -28.076  0.00  0.00    +0.058 C 
BRANCH  24  25
ATOM     25  C   UNL     1      33.750 -40.233 -26.588  0.00  0.00    +0.308 C 
ATOM     26  O   UNL     1      34.323 -40.990 -25.818  0.00  0.00    -0.251 OA
BRANCH  25  27
ATOM     27  O   UNL     1      32.780 -39.343 -26.232  0.00  0.00    -0.465 OA
BRANCH  27  29
ATOM     28  C   UNL     1      33.570 -37.285 -25.310  0.00  0.00    -0.031 C 
ATOM     29  C   UNL     1      33.080 -37.982 -26.564  0.00  0.00    +0.090 C 
ENDBRANCH  27  29
ENDBRANCH  25  27
ENDBRANCH  24  25
ENDBRANCH  23  24
ENDBRANCH   1  23
TORSDOF 7
ENDMDL
MODEL 5
REMARK VINA RESULT:    -7.146      1.724      4.190
REMARK INTER + INTRA:         -10.428
REMARK INTER:                  -9.886
REMARK INTRA:                  -0.541
REMARK UNBOUND:                -0.566
REMARK  Name = cpd316.pdb
REMARK  9 active torsions:
REMARK  status: ('A' for Active; 'I' for Inactive)
REMARK    1  A    between atoms: C_1  and  C_2
REMARK    2  A    between atoms: C_2  and  O_3
REMARK    3  A    between atoms: O_3  and  C_4
REMARK    4  A    between atoms: C_4  and  C_6
REMARK    5  A    between atoms: C_6  and  C_7
REMARK    6  A    between atoms: C_7  and  N_8
REMARK    7  A    between atoms: C_14  and  O_15
REMARK    8  A    between atoms: C_20  and  O_21
REMARK    9  A    between atoms: O_21  and  C_22
REMARK                            x       y       z     vdW  Elec       q    Type
REMARK                         _______ _______ _______ _____ _____    ______ ____
ROOT
ATOM      1  N   UNL     1      37.341 -35.729 -31.806  0.00  0.00    -0.298 N 
ATOM      2  C   UNL     1      37.058 -34.482 -31.075  0.00  0.00    +0.000 C 
ATOM      3  C   UNL     1      35.540 -34.225 -30.878  0.00  0.00    -0.023 C 
ATOM      4  C   UNL     1      34.666 -35.504 -30.826  0.00  0.00    +0.056 C 
ATOM      5  C   UNL     1      34.365 -35.999 -32.220  0.00  0.00    -0.071 C 
ATOM      6  C   UNL     1      33.280 -35.541 -32.880  0.00  0.00    -0.059 C 
ATOM      7  C   UNL     1      32.263 -34.592 -32.283  0.00  0.00    +0.077 C 
ATOM      8  C   UNL     1      32.458 -34.271 -30.783  0.00  0.00    +0.015 C 
ATOM      9  C   UNL     1      33.272 -35.395 -30.160  0.00  0.00    +0.116 C 
ATOM     10  O   UNL     1      33.457 -35.350 -28.741  0.00  0.00    -0.484 OA
ATOM     11  C   UNL     1      34.498 -36.257 -28.591  0.00  0.00    +0.167 A 
ATOM     12  C   UNL     1      34.863 -36.891 -27.415  0.00  0.00    +0.162 A 
ATOM     13  C   UNL     1      36.044 -37.641 -27.442  0.00  0.00    -0.016 A 
ATOM     14  C   UNL     1      36.852 -37.697 -28.594  0.00  0.00    -0.053 A 
ATOM     15  C   UNL     1      36.492 -37.017 -29.767  0.00  0.00    -0.026 A 
ATOM     16  C   UNL     1      35.253 -36.387 -29.773  0.00  0.00    +0.016 A 
ATOM     17  C   UNL     1      37.490 -36.898 -30.900  0.00  0.00    +0.024 C 
ATOM     18  H   UNL     1      36.525 -35.881 -32.398  0.00  0.00    +0.000 HD
ENDROOT
BRANCH   7  19
ATOM     19  O   UNL     1      30.998 -35.226 -32.456  0.00  0.00    -0.388 OA
ATOM     20  H   UNL     1      31.129 -36.175 -32.603  0.00  0.00    +0.000 HD
ENDBRANCH   7  19
BRANCH  12  21
ATOM     21  O   UNL     1      34.230 -36.872 -26.208  0.00  0.00    -0.491 OA
ATOM     22  C   UNL     1      33.904 -38.131 -25.634  0.00  0.00    +0.079 C 
ENDBRANCH  12  21
BRANCH   1  23
ATOM     23  C   UNL     1      38.527 -35.622 -32.674  0.00  0.00    +0.009 C 
BRANCH  23  24
ATOM     24  C   UNL     1      39.829 -35.750 -31.881  0.00  0.00    +0.058 C 
BRANCH  24  25
ATOM     25  C   UNL     1      40.975 -36.101 -32.796  0.00  0.00    +0.308 C 
ATOM     26  O   UNL     1      41.022 -35.866 -33.995  0.00  0.00    -0.251 OA
BRANCH  25  27
ATOM     27  O   UNL     1      41.945 -36.747 -32.088  0.00  0.00    -0.465 OA
BRANCH  27  29
ATOM     28  C   UNL     1      43.950 -36.068 -30.978  0.00  0.00    -0.031 C 
ATOM     29  C   UNL     1      42.435 -36.013 -30.959  0.00  0.00    +0.090 C 
ENDBRANCH  27  29
ENDBRANCH  25  27
ENDBRANCH  24  25
ENDBRANCH  23  24
ENDBRANCH   1  23
TORSDOF 7
ENDMDL
MODEL 6
REMARK VINA RESULT:    -7.123      2.803      7.105
REMARK INTER + INTRA:         -10.395
REMARK INTER:                  -9.695
REMARK INTRA:                  -0.700
REMARK UNBOUND:                -0.566
REMARK  Name = cpd316.pdb
REMARK  9 active torsions:
REMARK  status: ('A' for Active; 'I' for Inactive)
REMARK    1  A    between atoms: C_1  and  C_2
REMARK    2  A    between atoms: C_2  and  O_3
REMARK    3  A    between atoms: O_3  and  C_4
REMARK    4  A    between atoms: C_4  and  C_6
REMARK    5  A    between atoms: C_6  and  C_7
REMARK    6  A    between atoms: C_7  and  N_8
REMARK    7  A    between atoms: C_14  and  O_15
REMARK    8  A    between atoms: C_20  and  O_21
REMARK    9  A    between atoms: O_21  and  C_22
REMARK                            x       y       z     vdW  Elec       q    Type
REMARK                         _______ _______ _______ _____ _____    ______ ____
ROOT
ATOM      1  N   UNL     1      36.484 -38.991 -29.065  0.00  0.00    -0.298 N 
ATOM      2  C   UNL     1      36.176 -38.927 -30.504  0.00  0.00    +0.000 C 
ATOM      3  C   UNL     1      35.747 -37.511 -30.972  0.00  0.00    -0.023 C 
ATOM      4  C   UNL     1      36.334 -36.345 -30.137  0.00  0.00    +0.056 C 
ATOM      5  C   UNL     1      35.528 -36.135 -28.878  0.00  0.00    -0.071 C 
ATOM      6  C   UNL     1      34.462 -35.308 -28.889  0.00  0.00    -0.059 C 
ATOM      7  C   UNL     1      34.038 -34.486 -30.088  0.00  0.00    +0.077 C 
ATOM      8  C   UNL     1      35.001 -34.537 -31.297  0.00  0.00    +0.015 C 
ATOM      9  C   UNL     1      36.378 -34.942 -30.791  0.00  0.00    +0.116 C 
ATOM     10  O   UNL     1      37.448 -34.924 -31.742  0.00  0.00    -0.484 OA
ATOM     11  C   UNL     1      38.403 -35.670 -31.064  0.00  0.00    +0.167 A 
ATOM     12  C   UNL     1      39.762 -35.690 -31.329  0.00  0.00    +0.162 A 
ATOM     13  C   UNL     1      40.528 -36.635 -30.638  0.00  0.00    -0.016 A 
ATOM     14  C   UNL     1      39.934 -37.560 -29.760  0.00  0.00    -0.053 A 
ATOM     15  C   UNL     1      38.550 -37.557 -29.529  0.00  0.00    -0.026 A 
ATOM     16  C   UNL     1      37.817 -36.531 -30.115  0.00  0.00    +0.016 A 
ATOM     17  C   UNL     1      37.914 -38.707 -28.776  0.00  0.00    +0.024 C 
ATOM     18  H   UNL     1      35.917 -38.257 -28.641  0.00  0.00    +0.000 HD
ENDROOT
BRANCH   7  19
ATOM     19  O   UNL     1      33.955 -33.142 -29.624  0.00  0.00    -0.388 OA
ATOM     20  H   UNL     1      34.505 -33.038 -28.832  0.00  0.00    +0.000 HD
ENDBRANCH   7  19
BRANCH  12  21
ATOM     21  O   UNL     1      40.468 -34.913 -32.200  0.00  0.00    -0.491 OA
ATOM     22  C   UNL     1      41.572 -35.524 -32.854  0.00  0.00    +0.079 C 
ENDBRANCH  12  21
BRANCH   1  23
ATOM     23  C   UNL     1      36.102 -40.279 -28.459  0.00  0.00    +0.009 C 
BRANCH  23  24
ATOM     24  C   UNL     1      35.736 -41.321 -29.517  0.00  0.00    +0.058 C 
BRANCH  24  25
ATOM     25  C   UNL     1      34.353 -41.868 -29.265  0.00  0.00    +0.308 C 
ATOM     26  O   UNL     1      34.100 -42.957 -28.770  0.00  0.00    -0.251 OA
BRANCH  25  27
ATOM     27  O   UNL     1      33.421 -40.971 -29.697  0.00  0.00    -0.465 OA
BRANCH  27  29
ATOM     28  C   UNL     1      31.835 -40.494 -31.419  0.00  0.00    -0.031 C 
ATOM     29  C   UNL     1      33.254 -40.934 -31.119  0.00  0.00    +0.090 C 
ENDBRANCH  27  29
ENDBRANCH  25  27
ENDBRANCH  24  25
ENDBRANCH  23  24
ENDBRANCH   1  23
TORSDOF 7
ENDMDL
MODEL 7
REMARK VINA RESULT:    -7.086     19.999     22.516
REMARK INTER + INTRA:         -10.344
REMARK INTER:                  -9.212
REMARK INTRA:                  -1.133
REMARK UNBOUND:                -0.566
REMARK  Name = cpd316.pdb
REMARK  9 active torsions:
REMARK  status: ('A' for Active; 'I' for Inactive)
REMARK    1  A    between atoms: C_1  and  C_2
REMARK    2  A    between atoms: C_2  and  O_3
REMARK    3  A    between atoms: O_3  and  C_4
REMARK    4  A    between atoms: C_4  and  C_6
REMARK    5  A    between atoms: C_6  and  C_7
REMARK    6  A    between atoms: C_7  and  N_8
REMARK    7  A    between atoms: C_14  and  O_15
REMARK    8  A    between atoms: C_20  and  O_21
REMARK    9  A    between atoms: O_21  and  C_22
REMARK                            x       y       z     vdW  Elec       q    Type
REMARK                         _______ _______ _______ _____ _____    ______ ____
ROOT
ATOM      1  N   UNL     1      45.132 -18.732 -40.412  0.00  0.00    -0.298 N 
ATOM      2  C   UNL     1      44.301 -17.966 -39.467  0.00  0.00    +0.000 C 
ATOM      3  C   UNL     1      44.824 -18.032 -38.007  0.00  0.00    -0.023 C 
ATOM      4  C   UNL     1      46.352 -18.249 -37.873  0.00  0.00    +0.056 C 
ATOM      5  C   UNL     1      46.697 -19.710 -38.026  0.00  0.00    -0.071 C 
ATOM      6  C   UNL     1      46.703 -20.519 -36.945  0.00  0.00    -0.059 C 
ATOM      7  C   UNL     1      46.455 -20.044 -35.529  0.00  0.00    +0.077 C 
ATOM      8  C   UNL     1      46.327 -18.512 -35.359  0.00  0.00    +0.015 C 
ATOM      9  C   UNL     1      47.021 -17.844 -36.536  0.00  0.00    +0.116 C 
ATOM     10  O   UNL     1      47.125 -16.417 -36.501  0.00  0.00    -0.484 OA
ATOM     11  C   UNL     1      47.447 -16.153 -37.826  0.00  0.00    +0.167 A 
ATOM     12  C   UNL     1      48.016 -14.987 -38.310  0.00  0.00    +0.162 A 
ATOM     13  C   UNL     1      48.107 -14.857 -39.700  0.00  0.00    -0.016 A 
ATOM     14  C   UNL     1      47.590 -15.840 -40.564  0.00  0.00    -0.053 A 
ATOM     15  C   UNL     1      46.979 -16.999 -40.063  0.00  0.00    -0.026 A 
ATOM     16  C   UNL     1      47.013 -17.182 -38.685  0.00  0.00    +0.016 A 
ATOM     17  C   UNL     1      46.223 -17.914 -41.004  0.00  0.00    +0.024 C 
ATOM     18  H   UNL     1      45.552 -19.475 -39.854  0.00  0.00    +0.000 HD
ENDROOT
BRANCH   7  19
ATOM     19  O   UNL     1      47.571 -20.499 -34.769  0.00  0.00    -0.388 OA
ATOM     20  H   UNL     1      48.260 -19.817 -34.766  0.00  0.00    +0.000 HD
ENDBRANCH   7  19
BRANCH  12  21
ATOM     21  O   UNL     1      48.493 -13.919 -37.607  0.00  0.00    -0.491 OA
ATOM     22  C   UNL     1      49.508 -13.144 -38.229  0.00  0.00    +0.079 C 
ENDBRANCH  12  21
BRANCH   1  23
ATOM     23  C   UNL     1      44.341 -19.355 -41.489  0.00  0.00    +0.009 C 
BRANCH  23  24
ATOM     24  C   UNL     1      45.096 -20.504 -42.159  0.00  0.00    +0.058 C 
BRANCH  24  25
ATOM     25  C   UNL     1      45.209 -21.680 -41.223  0.00  0.00    +0.308 C 
ATOM     26  O   UNL     1      44.723 -21.744 -40.103  0.00  0.00    -0.251 OA
BRANCH  25  27
ATOM     27  O   UNL     1      45.959 -22.659 -41.806  0.00  0.00    -0.465 OA
BRANCH  27  29
ATOM     28  C   UNL     1      48.019 -22.800 -40.602  0.00  0.00    -0.031 C 
ATOM     29  C   UNL     1      47.357 -22.355 -41.892  0.00  0.00    +0.090 C 
ENDBRANCH  27  29
ENDBRANCH  25  27
ENDBRANCH  24  25
ENDBRANCH  23  24
ENDBRANCH   1  23
TORSDOF 7
ENDMDL
MODEL 8
REMARK VINA RESULT:    -6.785     17.933     19.704
REMARK INTER + INTRA:          -9.929
REMARK INTER:                  -8.806
REMARK INTRA:                  -1.123
REMARK UNBOUND:                -0.566
REMARK  Name = cpd316.pdb
REMARK  9 active torsions:
REMARK  status: ('A' for Active; 'I' for Inactive)
REMARK    1  A    between atoms: C_1  and  C_2
REMARK    2  A    between atoms: C_2  and  O_3
REMARK    3  A    between atoms: O_3  and  C_4
REMARK    4  A    between atoms: C_4  and  C_6
REMARK    5  A    between atoms: C_6  and  C_7
REMARK    6  A    between atoms: C_7  and  N_8
REMARK    7  A    between atoms: C_14  and  O_15
REMARK    8  A    between atoms: C_20  and  O_21
REMARK    9  A    between atoms: O_21  and  C_22
REMARK                            x       y       z     vdW  Elec       q    Type
REMARK                         _______ _______ _______ _____ _____    ______ ____
ROOT
ATOM      1  N   UNL     1      45.802 -19.393 -39.881  0.00  0.00    -0.298 N 
ATOM      2  C   UNL     1      44.809 -18.380 -39.487  0.00  0.00    +0.000 C 
ATOM      3  C   UNL     1      43.465 -18.998 -39.016  0.00  0.00    -0.023 C 
ATOM      4  C   UNL     1      43.581 -20.415 -38.400  0.00  0.00    +0.056 C 
ATOM      5  C   UNL     1      43.643 -21.462 -39.485  0.00  0.00    -0.071 C 
ATOM      6  C   UNL     1      42.504 -22.000 -39.971  0.00  0.00    -0.059 C 
ATOM      7  C   UNL     1      41.122 -21.677 -39.443  0.00  0.00    +0.077 C 
ATOM      8  C   UNL     1      41.088 -20.778 -38.186  0.00  0.00    +0.015 C 
ATOM      9  C   UNL     1      42.432 -20.896 -37.481  0.00  0.00    +0.116 C 
ATOM     10  O   UNL     1      42.561 -20.234 -36.219  0.00  0.00    -0.484 OA
ATOM     11  C   UNL     1      43.941 -20.237 -36.069  0.00  0.00    +0.167 A 
ATOM     12  C   UNL     1      44.634 -20.055 -34.884  0.00  0.00    +0.162 A 
ATOM     13  C   UNL     1      46.024 -19.929 -34.977  0.00  0.00    -0.016 A 
ATOM     14  C   UNL     1      46.679 -19.927 -36.223  0.00  0.00    -0.053 A 
ATOM     15  C   UNL     1      45.963 -20.072 -37.421  0.00  0.00    -0.026 A 
ATOM     16  C   UNL     1      44.601 -20.331 -37.311  0.00  0.00    +0.016 A 
ATOM     17  C   UNL     1      46.658 -19.825 -38.744  0.00  0.00    +0.024 C 
ATOM     18  H   UNL     1      45.254 -20.194 -40.195  0.00  0.00    +0.000 HD
ENDROOT
BRANCH   7  19
ATOM     19  O   UNL     1      40.528 -22.933 -39.125  0.00  0.00    -0.388 OA
ATOM     20  H   UNL     1      40.151 -23.325 -39.928  0.00  0.00    +0.000 HD
ENDBRANCH   7  19
BRANCH  12  21
ATOM     21  O   UNL     1      44.139 -19.963 -33.617  0.00  0.00    -0.491 OA
ATOM     22  C   UNL     1      44.158 -18.676 -33.013  0.00  0.00    +0.079 C 
ENDBRANCH  12  21
BRANCH   1  23
ATOM     23  C   UNL     1      46.654 -18.950 -40.999  0.00  0.00    +0.009 C 
BRANCH  23  24
ATOM     24  C   UNL     1      47.293 -20.130 -41.732  0.00  0.00    +0.058 C 
BRANCH  24  25
ATOM     25  C   UNL     1      46.297 -21.250 -41.900  0.00  0.00    +0.308 C 
ATOM     26  O   UNL     1      45.310 -21.220 -42.622  0.00  0.00    -0.251 OA
BRANCH  25  27
ATOM     27  O   UNL     1      46.651 -22.300 -41.104  0.00  0.00    -0.465 OA
BRANCH  27  29
ATOM     28  C   UNL     1      47.974 -23.846 -42.356  0.00  0.00    -0.031 C 
ATOM     29  C   UNL     1      47.994 -22.759 -41.298  0.00  0.00    +0.090 C 
ENDBRANCH  27  29
ENDBRANCH  25  27
ENDBRANCH  24  25
ENDBRANCH  23  24
ENDBRANCH   1  23
TORSDOF 7
ENDMDL
MODEL 9
REMARK VINA RESULT:    -6.776     17.609     20.339
REMARK INTER + INTRA:          -9.917
REMARK INTER:                  -9.214
REMARK INTRA:                  -0.703
REMARK UNBOUND:                -0.566
REMARK  Name = cpd316.pdb
REMARK  9 active torsions:
REMARK  status: ('A' for Active; 'I' for Inactive)
REMARK    1  A    between atoms: C_1  and  C_2
REMARK    2  A    between atoms: C_2  and  O_3
REMARK    3  A    between atoms: O_3  and  C_4
REMARK    4  A    between atoms: C_4  and  C_6
REMARK    5  A    between atoms: C_6  and  C_7
REMARK    6  A    between atoms: C_7  and  N_8
REMARK    7  A    between atoms: C_14  and  O_15
REMARK    8  A    between atoms: C_20  and  O_21
REMARK    9  A    between atoms: O_21  and  C_22
REMARK                            x       y       z     vdW  Elec       q    Type
REMARK                         _______ _______ _______ _____ _____    ______ ____
ROOT
ATOM      1  N   UNL     1      46.346 -19.067 -38.025  0.00  0.00    -0.298 N 
ATOM      2  C   UNL     1      45.709 -18.436 -39.193  0.00  0.00    +0.000 C 
ATOM      3  C   UNL     1      45.427 -19.437 -40.346  0.00  0.00    -0.023 C 
ATOM      4  C   UNL     1      45.200 -20.902 -39.893  0.00  0.00    +0.056 C 
ATOM      5  C   UNL     1      46.520 -21.596 -39.661  0.00  0.00    -0.071 C 
ATOM      6  C   UNL     1      47.138 -22.230 -40.679  0.00  0.00    -0.059 C 
ATOM      7  C   UNL     1      46.554 -22.370 -42.070  0.00  0.00    +0.077 C 
ATOM      8  C   UNL     1      45.107 -21.853 -42.234  0.00  0.00    +0.015 C 
ATOM      9  C   UNL     1      44.447 -21.846 -40.863  0.00  0.00    +0.116 C 
ATOM     10  O   UNL     1      43.055 -21.516 -40.816  0.00  0.00    -0.484 OA
ATOM     11  C   UNL     1      42.901 -21.250 -39.462  0.00  0.00    +0.167 A 
ATOM     12  C   UNL     1      41.704 -21.228 -38.766  0.00  0.00    +0.162 A 
ATOM     13  C   UNL     1      41.750 -20.775 -37.443  0.00  0.00    -0.016 A 
ATOM     14  C   UNL     1      42.948 -20.309 -36.868  0.00  0.00    -0.053 A 
ATOM     15  C   UNL     1      44.147 -20.299 -37.596  0.00  0.00    -0.026 A 
ATOM     16  C   UNL     1      44.119 -20.874 -38.862  0.00  0.00    +0.016 A 
ATOM     17  C   UNL     1      45.354 -19.573 -37.040  0.00  0.00    +0.024 C 
ATOM     18  H   UNL     1      46.862 -19.862 -38.402  0.00  0.00    +0.000 HD
ENDROOT
BRANCH   7  19
ATOM     19  O   UNL     1      46.580 -23.765 -42.360  0.00  0.00    -0.388 OA
ATOM     20  H   UNL     1      47.000 -24.241 -41.626  0.00  0.00    +0.000 HD
ENDBRANCH   7  19
BRANCH  12  21
ATOM     21  O   UNL     1      40.460 -21.575 -39.204  0.00  0.00    -0.491 OA
ATOM     22  C   UNL     1      39.367 -21.250 -38.357  0.00  0.00    +0.079 C 
ENDBRANCH  12  21
BRANCH   1  23
ATOM     23  C   UNL     1      47.304 -18.174 -37.348  0.00  0.00    +0.009 C 
BRANCH  23  24
ATOM     24  C   UNL     1      46.721 -17.580 -36.064  0.00  0.00    +0.058 C 
BRANCH  24  25
ATOM     25  C   UNL     1      47.601 -17.907 -34.884  0.00  0.00    +0.308 C 
ATOM     26  O   UNL     1      48.820 -17.990 -34.910  0.00  0.00    -0.251 OA
BRANCH  25  27
ATOM     27  O   UNL     1      46.827 -18.120 -33.781  0.00  0.00    -0.465 OA
BRANCH  27  29
ATOM     28  C   UNL     1      44.525 -18.457 -33.233  0.00  0.00    -0.031 C 
ATOM     29  C   UNL     1      45.535 -17.503 -33.842  0.00  0.00    +0.090 C 
ENDBRANCH  27  29
ENDBRANCH  25  27
ENDBRANCH  24  25
ENDBRANCH  23  24
ENDBRANCH   1  23
TORSDOF 7
ENDMDL
MODEL 10
REMARK VINA RESULT:    -6.766      2.153      6.669
REMARK INTER + INTRA:          -9.903
REMARK INTER:                  -9.061
REMARK INTRA:                  -0.841
REMARK UNBOUND:                -0.566
REMARK  Name = cpd316.pdb
REMARK  9 active torsions:
REMARK  status: ('A' for Active; 'I' for Inactive)
REMARK    1  A    between atoms: C_1  and  C_2
REMARK    2  A    between atoms: C_2  and  O_3
REMARK    3  A    between atoms: O_3  and  C_4
REMARK    4  A    between atoms: C_4  and  C_6
REMARK    5  A    between atoms: C_6  and  C_7
REMARK    6  A    between atoms: C_7  and  N_8
REMARK    7  A    between atoms: C_14  and  O_15
REMARK    8  A    between atoms: C_20  and  O_21
REMARK    9  A    between atoms: O_21  and  C_22
REMARK                            x       y       z     vdW  Elec       q    Type
REMARK                         _______ _______ _______ _____ _____    ______ ____
ROOT
ATOM      1  N   UNL     1      35.093 -35.053 -30.828  0.00  0.00    -0.298 N 
ATOM      2  C   UNL     1      35.377 -35.146 -29.386  0.00  0.00    +0.000 C 
ATOM      3  C   UNL     1      35.568 -36.607 -28.897  0.00  0.00    -0.023 C 
ATOM      4  C   UNL     1      36.100 -37.588 -29.972  0.00  0.00    +0.056 C 
ATOM      5  C   UNL     1      34.976 -38.067 -30.856  0.00  0.00    -0.071 C 
ATOM      6  C   UNL     1      34.267 -39.164 -30.513  0.00  0.00    -0.059 C 
ATOM      7  C   UNL     1      34.571 -40.025 -29.305  0.00  0.00    +0.077 C 
ATOM      8  C   UNL     1      35.860 -39.655 -28.536  0.00  0.00    +0.015 C 
ATOM      9  C   UNL     1      36.775 -38.893 -29.484  0.00  0.00    +0.116 C 
ATOM     10  O   UNL     1      38.082 -38.567 -28.998  0.00  0.00    -0.484 OA
ATOM     11  C   UNL     1      38.465 -37.606 -29.924  0.00  0.00    +0.167 A 
ATOM     12  C   UNL     1      39.761 -37.189 -30.178  0.00  0.00    +0.162 A 
ATOM     13  C   UNL     1      39.916 -36.092 -31.032  0.00  0.00    -0.016 A 
ATOM     14  C   UNL     1      38.804 -35.409 -31.560  0.00  0.00    -0.053 A 
ATOM     15  C   UNL     1      37.494 -35.817 -31.264  0.00  0.00    -0.026 A 
ATOM     16  C   UNL     1      37.352 -36.986 -30.525  0.00  0.00    +0.016 A 
ATOM     17  C   UNL     1      36.329 -34.927 -31.644  0.00  0.00    +0.024 C 
ATOM     18  H   UNL     1      34.638 -35.934 -31.066  0.00  0.00    +0.000 HD
ENDROOT
BRANCH   7  19
ATOM     19  O   UNL     1      34.698 -41.355 -29.802  0.00  0.00    -0.388 OA
ATOM     20  H   UNL     1      34.073 -41.489 -30.531  0.00  0.00    +0.000 HD
ENDBRANCH   7  19
BRANCH  12  21
ATOM     21  O   UNL     1      40.927 -37.697 -29.687  0.00  0.00    -0.491 OA
ATOM     22  C   UNL     1      41.940 -38.008 -30.634  0.00  0.00    +0.079 C 
ENDBRANCH  12  21
BRANCH   1  23
ATOM     23  C   UNL     1      34.169 -33.953 -31.156  0.00  0.00    +0.009 C 
BRANCH  23  24
ATOM     24  C   UNL     1      34.237 -32.824 -30.125  0.00  0.00    +0.058 C 
BRANCH  24  25
ATOM     25  C   UNL     1      32.859 -32.279 -29.846  0.00  0.00    +0.308 C 
ATOM     26  O   UNL     1      32.534 -31.103 -29.914  0.00  0.00    -0.251 OA
BRANCH  25  27
ATOM     27  O   UNL     1      32.030 -33.299 -29.478  0.00  0.00    -0.465 OA
BRANCH  27  29
ATOM     28  C   UNL     1      31.934 -35.039 -27.843  0.00  0.00    -0.031 C 
ATOM     29  C   UNL     1      31.984 -33.540 -28.067  0.00  0.00    +0.090 C 
ENDBRANCH  27  29
ENDBRANCH  25  27
ENDBRANCH  24  25
ENDBRANCH  23  24
ENDBRANCH   1  23
TORSDOF 7
ENDMDL
MODEL 11
REMARK VINA RESULT:    -6.746      2.278      6.754
REMARK INTER + INTRA:          -9.875
REMARK INTER:                  -8.839
REMARK INTRA:                  -1.037
REMARK UNBOUND:                -0.566
REMARK  Name = cpd316.pdb
REMARK  9 active torsions:
REMARK  status: ('A' for Active; 'I' for Inactive)
REMARK    1  A    between atoms: C_1  and  C_2
REMARK    2  A    between atoms: C_2  and  O_3
REMARK    3  A    between atoms: O_3  and  C_4
REMARK    4  A    between atoms: C_4  and  C_6
REMARK    5  A    between atoms: C_6  and  C_7
REMARK    6  A    between atoms: C_7  and  N_8
REMARK    7  A    between atoms: C_14  and  O_15
REMARK    8  A    between atoms: C_20  and  O_21
REMARK    9  A    between atoms: O_21  and  C_22
REMARK                            x       y       z     vdW  Elec       q    Type
REMARK                         _______ _______ _______ _____ _____    ______ ____
ROOT
ATOM      1  N   UNL     1      33.824 -37.473 -28.206  0.00  0.00    -0.298 N 
ATOM      2  C   UNL     1      33.658 -37.718 -29.649  0.00  0.00    +0.000 C 
ATOM      3  C   UNL     1      33.849 -36.441 -30.509  0.00  0.00    -0.023 C 
ATOM      4  C   UNL     1      34.792 -35.377 -29.892  0.00  0.00    +0.056 C 
ATOM      5  C   UNL     1      34.054 -34.540 -28.875  0.00  0.00    -0.071 C 
ATOM      6  C   UNL     1      33.400 -33.425 -29.264  0.00  0.00    -0.059 C 
ATOM      7  C   UNL     1      33.410 -32.887 -30.680  0.00  0.00    +0.077 C 
ATOM      8  C   UNL     1      34.350 -33.625 -31.661  0.00  0.00    +0.015 C 
ATOM      9  C   UNL     1      35.423 -34.334 -30.847  0.00  0.00    +0.116 C 
ATOM     10  O   UNL     1      36.472 -34.976 -31.580  0.00  0.00    -0.484 OA
ATOM     11  C   UNL     1      37.013 -35.787 -30.592  0.00  0.00    +0.167 A 
ATOM     12  C   UNL     1      38.270 -36.369 -30.612  0.00  0.00    +0.162 A 
ATOM     13  C   UNL     1      38.559 -37.285 -29.595  0.00  0.00    -0.016 A 
ATOM     14  C   UNL     1      37.595 -37.641 -28.633  0.00  0.00    -0.053 A 
ATOM     15  C   UNL     1      36.312 -37.075 -28.646  0.00  0.00    -0.026 A 
ATOM     16  C   UNL     1      36.078 -36.069 -29.576  0.00  0.00    +0.016 A 
ATOM     17  C   UNL     1      35.230 -37.652 -27.756  0.00  0.00    +0.024 C 
ATOM     18  H   UNL     1      33.565 -36.495 -28.072  0.00  0.00    +0.000 HD
ENDROOT
BRANCH   7  19
ATOM     19  O   UNL     1      33.830 -31.530 -30.573  0.00  0.00    -0.388 OA
ATOM     20  H   UNL     1      34.200 -31.238 -31.421  0.00  0.00    +0.000 HD
ENDBRANCH   7  19
BRANCH  12  21
ATOM     21  O   UNL     1      39.277 -36.183 -31.512  0.00  0.00    -0.491 OA
ATOM     22  C   UNL     1      39.959 -34.937 -31.463  0.00  0.00    +0.079 C 
ENDBRANCH  12  21
BRANCH   1  23
ATOM     23  C   UNL     1      32.931 -38.305 -27.381  0.00  0.00    +0.009 C 
BRANCH  23  24
ATOM     24  C   UNL     1      32.592 -39.630 -28.066  0.00  0.00    +0.058 C 
BRANCH  24  25
ATOM     25  C   UNL     1      33.437 -40.746 -27.504  0.00  0.00    +0.308 C 
ATOM     26  O   UNL     1      33.526 -41.043 -26.322  0.00  0.00    -0.251 OA
BRANCH  25  27
ATOM     27  O   UNL     1      34.111 -41.364 -28.517  0.00  0.00    -0.465 OA
BRANCH  27  29
ATOM     28  C   UNL     1      36.095 -40.952 -29.784  0.00  0.00    -0.031 C 
ATOM     29  C   UNL     1      35.537 -41.279 -28.412  0.00  0.00    +0.090 C 
ENDBRANCH  27  29
ENDBRANCH  25  27
ENDBRANCH  24  25
ENDBRANCH  23  24
ENDBRANCH   1  23
TORSDOF 7
ENDMDL
MODEL 12
REMARK VINA RESULT:    -6.693      3.077      5.826
REMARK INTER + INTRA:          -9.802
REMARK INTER:                  -8.740
REMARK INTRA:                  -1.062
REMARK UNBOUND:                -0.566
REMARK  Name = cpd316.pdb
REMARK  9 active torsions:
REMARK  status: ('A' for Active; 'I' for Inactive)
REMARK    1  A    between atoms: C_1  and  C_2
REMARK    2  A    between atoms: C_2  and  O_3
REMARK    3  A    between atoms: O_3  and  C_4
REMARK    4  A    between atoms: C_4  and  C_6
REMARK    5  A    between atoms: C_6  and  C_7
REMARK    6  A    between atoms: C_7  and  N_8
REMARK    7  A    between atoms: C_14  and  O_15
REMARK    8  A    between atoms: C_20  and  O_21
REMARK    9  A    between atoms: O_21  and  C_22
REMARK                            x       y       z     vdW  Elec       q    Type
REMARK                         _______ _______ _______ _____ _____    ______ ____
ROOT
ATOM      1  N   UNL     1      36.163 -39.312 -28.720  0.00  0.00    -0.298 N 
ATOM      2  C   UNL     1      34.865 -39.215 -29.407  0.00  0.00    +0.000 C 
ATOM      3  C   UNL     1      33.876 -38.246 -28.704  0.00  0.00    -0.023 C 
ATOM      4  C   UNL     1      34.547 -37.100 -27.906  0.00  0.00    +0.056 C 
ATOM      5  C   UNL     1      34.983 -37.586 -26.545  0.00  0.00    -0.071 C 
ATOM      6  C   UNL     1      34.130 -37.527 -25.501  0.00  0.00    -0.059 C 
ATOM      7  C   UNL     1      32.744 -36.922 -25.572  0.00  0.00    +0.077 C 
ATOM      8  C   UNL     1      32.394 -36.226 -26.908  0.00  0.00    +0.015 C 
ATOM      9  C   UNL     1      33.695 -35.844 -27.598  0.00  0.00    +0.116 C 
ATOM     10  O   UNL     1      33.588 -35.071 -28.799  0.00  0.00    -0.484 OA
ATOM     11  C   UNL     1      34.865 -35.231 -29.319  0.00  0.00    +0.167 A 
ATOM     12  C   UNL     1      35.461 -34.430 -30.278  0.00  0.00    +0.162 A 
ATOM     13  C   UNL     1      36.691 -34.860 -30.787  0.00  0.00    -0.016 A 
ATOM     14  C   UNL     1      37.265 -36.081 -30.385  0.00  0.00    -0.053 A 
ATOM     15  C   UNL     1      36.632 -36.905 -29.443  0.00  0.00    -0.026 A 
ATOM     16  C   UNL     1      35.480 -36.407 -28.845  0.00  0.00    +0.016 A 
ATOM     17  C   UNL     1      37.146 -38.311 -29.213  0.00  0.00    +0.024 C 
ATOM     18  H   UNL     1      35.961 -39.111 -27.741  0.00  0.00    +0.000 HD
ENDROOT
BRANCH   7  19
ATOM     19  O   UNL     1      32.691 -35.958 -24.524  0.00  0.00    -0.388 OA
ATOM     20  H   UNL     1      33.572 -35.576 -24.391  0.00  0.00    +0.000 HD
ENDBRANCH   7  19
BRANCH  12  21
ATOM     21  O   UNL     1      34.999 -33.266 -30.819  0.00  0.00    -0.491 OA
ATOM     22  C   UNL     1      34.004 -33.377 -31.828  0.00  0.00    +0.079 C 
ENDBRANCH  12  21
BRANCH   1  23
ATOM     23  C   UNL     1      36.750 -40.663 -28.801  0.00  0.00    +0.009 C 
BRANCH  23  24
ATOM     24  C   UNL     1      35.675 -41.751 -28.812  0.00  0.00    +0.058 C 
BRANCH  24  25
ATOM     25  C   UNL     1      35.533 -42.368 -27.443  0.00  0.00    +0.308 C 
ATOM     26  O   UNL     1      36.458 -42.713 -26.722  0.00  0.00    -0.251 OA
BRANCH  25  27
ATOM     27  O   UNL     1      34.211 -42.507 -27.138  0.00  0.00    -0.465 OA
BRANCH  27  29
ATOM     28  C   UNL     1      32.242 -41.153 -27.185  0.00  0.00    -0.031 C 
ATOM     29  C   UNL     1      33.614 -41.338 -26.565  0.00  0.00    +0.090 C 
ENDBRANCH  27  29
ENDBRANCH  25  27
ENDBRANCH  24  25
ENDBRANCH  23  24
ENDBRANCH   1  23
TORSDOF 7
ENDMDL
MODEL 13
REMARK VINA RESULT:    -6.668      3.067      4.333
REMARK INTER + INTRA:          -9.768
REMARK INTER:                  -8.219
REMARK INTRA:                  -1.549
REMARK UNBOUND:                -0.566
REMARK  Name = cpd316.pdb
REMARK  9 active torsions:
REMARK  status: ('A' for Active; 'I' for Inactive)
REMARK    1  A    between atoms: C_1  and  C_2
REMARK    2  A    between atoms: C_2  and  O_3
REMARK    3  A    between atoms: O_3  and  C_4
REMARK    4  A    between atoms: C_4  and  C_6
REMARK    5  A    between atoms: C_6  and  C_7
REMARK    6  A    between atoms: C_7  and  N_8
REMARK    7  A    between atoms: C_14  and  O_15
REMARK    8  A    between atoms: C_20  and  O_21
REMARK    9  A    between atoms: O_21  and  C_22
REMARK                            x       y       z     vdW  Elec       q    Type
REMARK                         _______ _______ _______ _____ _____    ______ ____
ROOT
ATOM      1  N   UNL     1      35.453 -37.403 -30.153  0.00  0.00    -0.298 N 
ATOM      2  C   UNL     1      34.044 -37.412 -30.580  0.00  0.00    +0.000 C 
ATOM      3  C   UNL     1      33.069 -36.932 -29.471  0.00  0.00    -0.023 C 
ATOM      4  C   UNL     1      33.683 -35.938 -28.453  0.00  0.00    +0.056 C 
ATOM      5  C   UNL     1      34.467 -36.677 -27.396  0.00  0.00    -0.071 C 
ATOM      6  C   UNL     1      33.850 -37.111 -26.277  0.00  0.00    -0.059 C 
ATOM      7  C   UNL     1      32.396 -36.841 -25.952  0.00  0.00    +0.077 C 
ATOM      8  C   UNL     1      31.664 -35.894 -26.931  0.00  0.00    +0.015 C 
ATOM      9  C   UNL     1      32.710 -35.047 -27.642  0.00  0.00    +0.116 C 
ATOM     10  O   UNL     1      32.226 -34.012 -28.505  0.00  0.00    -0.484 OA
ATOM     11  C   UNL     1      33.377 -33.724 -29.226  0.00  0.00    +0.167 A 
ATOM     12  C   UNL     1      33.616 -32.570 -29.954  0.00  0.00    +0.162 A 
ATOM     13  C   UNL     1      34.770 -32.548 -30.744  0.00  0.00    -0.016 A 
ATOM     14  C   UNL     1      35.616 -33.670 -30.839  0.00  0.00    -0.053 A 
ATOM     15  C   UNL     1      35.342 -34.848 -30.129  0.00  0.00    -0.026 A 
ATOM     16  C   UNL     1      34.269 -34.814 -29.245  0.00  0.00    +0.016 A 
ATOM     17  C   UNL     1      36.126 -36.107 -30.436  0.00  0.00    +0.024 C 
ATOM     18  H   UNL     1      35.425 -37.538 -29.142  0.00  0.00    +0.000 HD
ENDROOT
BRANCH   7  19
ATOM     19  O   UNL     1      32.394 -36.251 -24.654  0.00  0.00    -0.388 OA
ATOM     20  H   UNL     1      31.796 -35.488 -24.647  0.00  0.00    +0.000 HD
ENDBRANCH   7  19
BRANCH  12  21
ATOM     21  O   UNL     1      32.860 -31.438 -30.022  0.00  0.00    -0.491 OA
ATOM     22  C   UNL     1      31.797 -31.432 -30.966  0.00  0.00    +0.079 C 
ENDBRANCH  12  21
BRANCH   1  23
ATOM     23  C   UNL     1      36.233 -38.505 -30.744  0.00  0.00    +0.009 C 
BRANCH  23  24
ATOM     24  C   UNL     1      36.068 -39.806 -29.957  0.00  0.00    +0.058 C 
BRANCH  24  25
ATOM     25  C   UNL     1      36.302 -39.568 -28.486  0.00  0.00    +0.308 C 
ATOM     26  O   UNL     1      37.284 -39.023 -28.004  0.00  0.00    -0.251 OA
BRANCH  25  27
ATOM     27  O   UNL     1      35.260 -40.077 -27.769  0.00  0.00    -0.465 OA
BRANCH  27  29
ATOM     28  C   UNL     1      32.890 -40.333 -27.938  0.00  0.00    -0.031 C 
ATOM     29  C   UNL     1      34.228 -40.666 -28.569  0.00  0.00    +0.090 C 
ENDBRANCH  27  29
ENDBRANCH  25  27
ENDBRANCH  24  25
ENDBRANCH  23  24
ENDBRANCH   1  23
TORSDOF 7
ENDMDL
MODEL 14
REMARK VINA RESULT:    -6.567     20.171     22.442
REMARK INTER + INTRA:          -9.628
REMARK INTER:                  -8.124
REMARK INTRA:                  -1.504
REMARK UNBOUND:                -0.566
REMARK  Name = cpd316.pdb
REMARK  9 active torsions:
REMARK  status: ('A' for Active; 'I' for Inactive)
REMARK    1  A    between atoms: C_1  and  C_2
REMARK    2  A    between atoms: C_2  and  O_3
REMARK    3  A    between atoms: O_3  and  C_4
REMARK    4  A    between atoms: C_4  and  C_6
REMARK    5  A    between atoms: C_6  and  C_7
REMARK    6  A    between atoms: C_7  and  N_8
REMARK    7  A    between atoms: C_14  and  O_15
REMARK    8  A    between atoms: C_20  and  O_21
REMARK    9  A    between atoms: O_21  and  C_22
REMARK                            x       y       z     vdW  Elec       q    Type
REMARK                         _______ _______ _______ _____ _____    ______ ____
ROOT
ATOM      1  N   UNL     1      44.939 -16.775 -40.817  0.00  0.00    -0.298 N 
ATOM      2  C   UNL     1      46.368 -17.108 -40.694  0.00  0.00    +0.000 C 
ATOM      3  C   UNL     1      46.654 -18.165 -39.595  0.00  0.00    -0.023 C 
ATOM      4  C   UNL     1      45.487 -19.146 -39.317  0.00  0.00    +0.056 C 
ATOM      5  C   UNL     1      44.471 -18.515 -38.397  0.00  0.00    -0.071 C 
ATOM      6  C   UNL     1      44.606 -18.633 -37.059  0.00  0.00    -0.059 C 
ATOM      7  C   UNL     1      45.696 -19.440 -36.385  0.00  0.00    +0.077 C 
ATOM      8  C   UNL     1      46.593 -20.264 -37.337  0.00  0.00    +0.015 C 
ATOM      9  C   UNL     1      45.827 -20.492 -38.632  0.00  0.00    +0.116 C 
ATOM     10  O   UNL     1      46.440 -21.347 -39.603  0.00  0.00    -0.484 OA
ATOM     11  C   UNL     1      45.688 -21.033 -40.728  0.00  0.00    +0.167 A 
ATOM     12  C   UNL     1      45.582 -21.798 -41.878  0.00  0.00    +0.162 A 
ATOM     13  C   UNL     1      44.906 -21.223 -42.960  0.00  0.00    -0.016 A 
ATOM     14  C   UNL     1      44.409 -19.908 -42.899  0.00  0.00    -0.053 A 
ATOM     15  C   UNL     1      44.557 -19.128 -41.742  0.00  0.00    -0.026 A 
ATOM     16  C   UNL     1      45.110 -19.752 -40.630  0.00  0.00    +0.016 A 
ATOM     17  C   UNL     1      44.232 -17.649 -41.790  0.00  0.00    +0.024 C 
ATOM     18  H   UNL     1      44.548 -16.942 -39.889  0.00  0.00    +0.000 HD
ENDROOT
BRANCH   7  19
ATOM     19  O   UNL     1      45.023 -20.333 -35.501  0.00  0.00    -0.388 OA
ATOM     20  H   UNL     1      45.489 -20.359 -34.651  0.00  0.00    +0.000 HD
ENDBRANCH   7  19
BRANCH  12  21
ATOM     21  O   UNL     1      46.071 -23.049 -42.113  0.00  0.00    -0.491 OA
ATOM     22  C   UNL     1      47.467 -23.157 -42.359  0.00  0.00    +0.079 C 
ENDBRANCH  12  21
BRANCH   1  23
ATOM     23  C   UNL     1      44.711 -15.361 -41.166  0.00  0.00    +0.009 C 
BRANCH  23  24
ATOM     24  C   UNL     1      44.845 -14.445 -39.948  0.00  0.00    +0.058 C 
BRANCH  24  25
ATOM     25  C   UNL     1      44.024 -14.971 -38.798  0.00  0.00    +0.308 C 
ATOM     26  O   UNL     1      42.845 -15.287 -38.854  0.00  0.00    -0.251 OA
BRANCH  25  27
ATOM     27  O   UNL     1      44.794 -15.021 -37.672  0.00  0.00    -0.465 OA
BRANCH  27  29
ATOM     28  C   UNL     1      47.046 -15.523 -37.051  0.00  0.00    -0.031 C 
ATOM     29  C   UNL     1      46.153 -14.612 -37.871  0.00  0.00    +0.090 C 
ENDBRANCH  27  29
ENDBRANCH  25  27
ENDBRANCH  24  25
ENDBRANCH  23  24
ENDBRANCH   1  23
TORSDOF 7
ENDMDL
MODEL 15
REMARK VINA RESULT:    -6.546     16.125     19.940
REMARK INTER + INTRA:          -9.600
REMARK INTER:                  -8.960
REMARK INTRA:                  -0.639
REMARK UNBOUND:                -0.566
REMARK  Name = cpd316.pdb
REMARK  9 active torsions:
REMARK  status: ('A' for Active; 'I' for Inactive)
REMARK    1  A    between atoms: C_1  and  C_2
REMARK    2  A    between atoms: C_2  and  O_3
REMARK    3  A    between atoms: O_3  and  C_4
REMARK    4  A    between atoms: C_4  and  C_6
REMARK    5  A    between atoms: C_6  and  C_7
REMARK    6  A    between atoms: C_7  and  N_8
REMARK    7  A    between atoms: C_14  and  O_15
REMARK    8  A    between atoms: C_20  and  O_21
REMARK    9  A    between atoms: O_21  and  C_22
REMARK                            x       y       z     vdW  Elec       q    Type
REMARK                         _______ _______ _______ _____ _____    ______ ____
ROOT
ATOM      1  N   UNL     1      42.464 -20.171 -37.321  0.00  0.00    -0.298 N 
ATOM      2  C   UNL     1      42.902 -18.796 -37.615  0.00  0.00    +0.000 C 
ATOM      3  C   UNL     1      44.388 -18.540 -37.247  0.00  0.00    -0.023 C 
ATOM      4  C   UNL     1      45.297 -19.793 -37.303  0.00  0.00    +0.056 C 
ATOM      5  C   UNL     1      45.160 -20.606 -36.039  0.00  0.00    -0.071 C 
ATOM      6  C   UNL     1      45.951 -20.342 -34.977  0.00  0.00    -0.059 C 
ATOM      7  C   UNL     1      47.056 -19.307 -34.980  0.00  0.00    +0.077 C 
ATOM      8  C   UNL     1      47.335 -18.641 -36.347  0.00  0.00    +0.015 C 
ATOM      9  C   UNL     1      46.823 -19.569 -37.440  0.00  0.00    +0.116 C 
ATOM     10  O   UNL     1      47.101 -19.190 -38.792  0.00  0.00    -0.484 OA
ATOM     11  C   UNL     1      46.211 -20.011 -39.473  0.00  0.00    +0.167 A 
ATOM     12  C   UNL     1      46.274 -20.345 -40.816  0.00  0.00    +0.162 A 
ATOM     13  C   UNL     1      45.188 -21.050 -41.344  0.00  0.00    -0.016 A 
ATOM     14  C   UNL     1      44.058 -21.352 -40.560  0.00  0.00    -0.053 A 
ATOM     15  C   UNL     1      43.987 -20.972 -39.211  0.00  0.00    -0.026 A 
ATOM     16  C   UNL     1      45.125 -20.392 -38.661  0.00  0.00    +0.016 A 
ATOM     17  C   UNL     1      42.673 -21.094 -38.467  0.00  0.00    +0.024 C 
ATOM     18  H   UNL     1      43.054 -20.477 -36.547  0.00  0.00    +0.000 HD
ENDROOT
BRANCH   7  19
ATOM     19  O   UNL     1      48.230 -19.995 -34.556  0.00  0.00    -0.388 OA
ATOM     20  H   UNL     1      48.254 -20.875 -34.965  0.00  0.00    +0.000 HD
ENDBRANCH   7  19
BRANCH  12  21
ATOM     21  O   UNL     1      47.259 -20.063 -41.715  0.00  0.00    -0.491 OA
ATOM     22  C   UNL     1      48.245 -21.065 -41.923  0.00  0.00    +0.079 C 
ENDBRANCH  12  21
BRANCH   1  23
ATOM     23  C   UNL     1      41.058 -20.238 -36.882  0.00  0.00    +0.009 C 
BRANCH  23  24
ATOM     24  C   UNL     1      40.922 -20.881 -35.501  0.00  0.00    +0.058 C 
BRANCH  24  25
ATOM     25  C   UNL     1      40.334 -22.266 -35.618  0.00  0.00    +0.308 C 
ATOM     26  O   UNL     1      40.753 -23.155 -36.345  0.00  0.00    -0.251 OA
BRANCH  25  27
ATOM     27  O   UNL     1      39.245 -22.370 -34.804  0.00  0.00    -0.465 OA
BRANCH  27  29
ATOM     28  C   UNL     1      38.159 -24.246 -33.796  0.00  0.00    -0.031 C 
ATOM     29  C   UNL     1      39.380 -23.346 -33.764  0.00  0.00    +0.090 C 
ENDBRANCH  27  29
ENDBRANCH  25  27
ENDBRANCH  24  25
ENDBRANCH  23  24
ENDBRANCH   1  23
TORSDOF 7
ENDMDL
MODEL 16
REMARK VINA RESULT:    -6.520     16.580     20.340
REMARK INTER + INTRA:          -9.564
REMARK INTER:                  -8.373
REMARK INTRA:                  -1.191
REMARK UNBOUND:                -0.566
REMARK  Name = cpd316.pdb
REMARK  9 active torsions:
REMARK  status: ('A' for Active; 'I' for Inactive)
REMARK    1  A    between atoms: C_1  and  C_2
REMARK    2  A    between atoms: C_2  and  O_3
REMARK    3  A    between atoms: O_3  and  C_4
REMARK    4  A    between atoms: C_4  and  C_6
REMARK    5  A    between atoms: C_6  and  C_7
REMARK    6  A    between atoms: C_7  and  N_8
REMARK    7  A    between atoms: C_14  and  O_15
REMARK    8  A    between atoms: C_20  and  O_21
REMARK    9  A    between atoms: O_21  and  C_22
REMARK                            x       y       z     vdW  Elec       q    Type
REMARK                         _______ _______ _______ _____ _____    ______ ____
ROOT
ATOM      1  N   UNL     1      42.382 -19.248 -38.811  0.00  0.00    -0.298 N 
ATOM      2  C   UNL     1      43.376 -18.220 -39.163  0.00  0.00    +0.000 C 
ATOM      3  C   UNL     1      44.759 -18.458 -38.500  0.00  0.00    -0.023 C 
ATOM      4  C   UNL     1      45.086 -19.942 -38.196  0.00  0.00    +0.056 C 
ATOM      5  C   UNL     1      44.432 -20.376 -36.907  0.00  0.00    -0.071 C 
ATOM      6  C   UNL     1      45.080 -20.214 -35.733  0.00  0.00    -0.059 C 
ATOM      7  C   UNL     1      46.491 -19.680 -35.610  0.00  0.00    +0.077 C 
ATOM      8  C   UNL     1      47.231 -19.453 -36.949  0.00  0.00    +0.015 C 
ATOM      9  C   UNL     1      46.574 -20.326 -38.008  0.00  0.00    +0.116 C 
ATOM     10  O   UNL     1      47.195 -20.355 -39.298  0.00  0.00    -0.484 OA
ATOM     11  C   UNL     1      46.175 -20.910 -40.059  0.00  0.00    +0.167 A 
ATOM     12  C   UNL     1      46.315 -21.507 -41.301  0.00  0.00    +0.162 A 
ATOM     13  C   UNL     1      45.138 -21.854 -41.972  0.00  0.00    -0.016 A 
ATOM     14  C   UNL     1      43.872 -21.556 -41.435  0.00  0.00    -0.053 A 
ATOM     15  C   UNL     1      43.742 -20.915 -40.194  0.00  0.00    -0.026 A 
ATOM     16  C   UNL     1      44.911 -20.695 -39.475  0.00  0.00    +0.016 A 
ATOM     17  C   UNL     1      42.387 -20.393 -39.759  0.00  0.00    +0.024 C 
ATOM     18  H   UNL     1      42.667 -19.588 -37.892  0.00  0.00    +0.000 HD
ENDROOT
BRANCH   7  19
ATOM     19  O   UNL     1      47.206 -20.652 -34.851  0.00  0.00    -0.388 OA
ATOM     20  H   UNL     1      47.847 -21.102 -35.422  0.00  0.00    +0.000 HD
ENDBRANCH   7  19
BRANCH  12  21
ATOM     21  O   UNL     1      47.462 -21.792 -41.980  0.00  0.00    -0.491 OA
ATOM     22  C   UNL     1      48.044 -23.069 -41.751  0.00  0.00    +0.079 C 
ENDBRANCH  12  21
BRANCH   1  23
ATOM     23  C   UNL     1      41.016 -18.705 -38.699  0.00  0.00    +0.009 C 
BRANCH  23  24
ATOM     24  C   UNL     1      40.616 -18.467 -37.242  0.00  0.00    +0.058 C 
BRANCH  24  25
ATOM     25  C   UNL     1      40.757 -19.737 -36.440  0.00  0.00    +0.308 C 
ATOM     26  O   UNL     1      41.322 -19.835 -35.361  0.00  0.00    -0.251 OA
BRANCH  25  27
ATOM     27  O   UNL     1      40.178 -20.771 -37.116  0.00  0.00    -0.465 OA
BRANCH  27  29
ATOM     28  C   UNL     1      39.451 -22.936 -36.411  0.00  0.00    -0.031 C 
ATOM     29  C   UNL     1      40.653 -22.066 -36.728  0.00  0.00    +0.090 C 
ENDBRANCH  27  29
ENDBRANCH  25  27
ENDBRANCH  24  25
ENDBRANCH  23  24
ENDBRANCH   1  23
TORSDOF 7
ENDMDL
MODEL 17
REMARK VINA RESULT:    -6.503      2.328      5.103
REMARK INTER + INTRA:          -9.540
REMARK INTER:                  -8.975
REMARK INTRA:                  -0.565
REMARK UNBOUND:                -0.566
REMARK  Name = cpd316.pdb
REMARK  9 active torsions:
REMARK  status: ('A' for Active; 'I' for Inactive)
REMARK    1  A    between atoms: C_1  and  C_2
REMARK    2  A    between atoms: C_2  and  O_3
REMARK    3  A    between atoms: O_3  and  C_4
REMARK    4  A    between atoms: C_4  and  C_6
REMARK    5  A    between atoms: C_6  and  C_7
REMARK    6  A    between atoms: C_7  and  N_8
REMARK    7  A    between atoms: C_14  and  O_15
REMARK    8  A    between atoms: C_20  and  O_21
REMARK    9  A    between atoms: O_21  and  C_22
REMARK                            x       y       z     vdW  Elec       q    Type
REMARK                         _______ _______ _______ _____ _____    ______ ____
ROOT
ATOM      1  N   UNL     1      36.641 -36.923 -29.982  0.00  0.00    -0.298 N 
ATOM      2  C   UNL     1      37.181 -37.283 -28.660  0.00  0.00    +0.000 C 
ATOM      3  C   UNL     1      36.088 -37.384 -27.564  0.00  0.00    -0.023 C 
ATOM      4  C   UNL     1      34.680 -37.771 -28.084  0.00  0.00    +0.056 C 
ATOM      5  C   UNL     1      33.967 -36.561 -28.634  0.00  0.00    -0.071 C 
ATOM      6  C   UNL     1      33.219 -35.788 -27.818  0.00  0.00    -0.059 C 
ATOM      7  C   UNL     1      32.971 -36.092 -26.356  0.00  0.00    +0.077 C 
ATOM      8  C   UNL     1      33.519 -37.450 -25.861  0.00  0.00    +0.015 C 
ATOM      9  C   UNL     1      33.676 -38.366 -27.066  0.00  0.00    +0.116 C 
ATOM     10  O   UNL     1      34.055 -39.721 -26.803  0.00  0.00    -0.484 OA
ATOM     11  C   UNL     1      34.451 -40.125 -28.071  0.00  0.00    +0.167 A 
ATOM     12  C   UNL     1      34.579 -41.433 -28.508  0.00  0.00    +0.162 A 
ATOM     13  C   UNL     1      35.151 -41.625 -29.770  0.00  0.00    -0.016 A 
ATOM     14  C   UNL     1      35.628 -40.542 -30.532  0.00  0.00    -0.053 A 
ATOM     15  C   UNL     1      35.530 -39.224 -30.062  0.00  0.00    -0.026 A 
ATOM     16  C   UNL     1      34.840 -39.032 -28.870  0.00  0.00    +0.016 A 
ATOM     17  C   UNL     1      36.263 -38.114 -30.787  0.00  0.00    +0.024 C 
ATOM     18  H   UNL     1      35.797 -36.384 -29.786  0.00  0.00    +0.000 HD
ENDROOT
BRANCH   7  19
ATOM     19  O   UNL     1      31.554 -36.082 -26.196  0.00  0.00    -0.388 OA
ATOM     20  H   UNL     1      31.134 -35.872 -27.044  0.00  0.00    +0.000 HD
ENDBRANCH   7  19
BRANCH  12  21
ATOM     21  O   UNL     1      34.234 -42.582 -27.859  0.00  0.00    -0.491 OA
ATOM     22  C   UNL     1      35.129 -43.046 -26.857  0.00  0.00    +0.079 C 
ENDBRANCH  12  21
BRANCH   1  23
ATOM     23  C   UNL     1      37.561 -36.072 -30.760  0.00  0.00    +0.009 C 
BRANCH  23  24
ATOM     24  C   UNL     1      38.977 -36.649 -30.796  0.00  0.00    +0.058 C 
BRANCH  24  25
ATOM     25  C   UNL     1      39.837 -35.879 -31.767  0.00  0.00    +0.308 C 
ATOM     26  O   UNL     1      39.426 -35.098 -32.613  0.00  0.00    -0.251 OA
BRANCH  25  27
ATOM     27  O   UNL     1      41.148 -36.203 -31.574  0.00  0.00    -0.465 OA
BRANCH  27  29
ATOM     28  C   UNL     1      42.466 -38.189 -31.398  0.00  0.00    -0.031 C 
ATOM     29  C   UNL     1      41.352 -37.372 -30.771  0.00  0.00    +0.090 C 
ENDBRANCH  27  29
ENDBRANCH  25  27
ENDBRANCH  24  25
ENDBRANCH  23  24
ENDBRANCH   1  23
TORSDOF 7
ENDMDL
MODEL 18
REMARK VINA RESULT:    -6.360     19.542     21.753
REMARK INTER + INTRA:          -9.342
REMARK INTER:                  -8.659
REMARK INTRA:                  -0.683
REMARK UNBOUND:                -0.566
REMARK  Name = cpd316.pdb
REMARK  9 active torsions:
REMARK  status: ('A' for Active; 'I' for Inactive)
REMARK    1  A    between atoms: C_1  and  C_2
REMARK    2  A    between atoms: C_2  and  O_3
REMARK    3  A    between atoms: O_3  and  C_4
REMARK    4  A    between atoms: C_4  and  C_6
REMARK    5  A    between atoms: C_6  and  C_7
REMARK    6  A    between atoms: C_7  and  N_8
REMARK    7  A    between atoms: C_14  and  O_15
REMARK    8  A    between atoms: C_20  and  O_21
REMARK    9  A    between atoms: O_21  and  C_22
REMARK                            x       y       z     vdW  Elec       q    Type
REMARK                         _______ _______ _______ _____ _____    ______ ____
ROOT
ATOM      1  N   UNL     1      45.475 -19.758 -36.878  0.00  0.00    -0.298 N 
ATOM      2  C   UNL     1      46.481 -18.790 -37.347  0.00  0.00    +0.000 C 
ATOM      3  C   UNL     1      46.940 -19.049 -38.807  0.00  0.00    -0.023 C 
ATOM      4  C   UNL     1      45.884 -19.740 -39.707  0.00  0.00    +0.056 C 
ATOM      5  C   UNL     1      45.886 -21.231 -39.478  0.00  0.00    -0.071 C 
ATOM      6  C   UNL     1      46.707 -22.024 -40.199  0.00  0.00    -0.059 C 
ATOM      7  C   UNL     1      47.606 -21.525 -41.311  0.00  0.00    +0.077 C 
ATOM      8  C   UNL     1      47.429 -20.036 -41.686  0.00  0.00    +0.015 C 
ATOM      9  C   UNL     1      46.042 -19.596 -41.240  0.00  0.00    +0.116 C 
ATOM     10  O   UNL     1      45.632 -18.275 -41.611  0.00  0.00    -0.484 OA
ATOM     11  C   UNL     1      44.548 -18.098 -40.762  0.00  0.00    +0.167 A 
ATOM     12  C   UNL     1      43.539 -17.161 -40.911  0.00  0.00    +0.162 A 
ATOM     13  C   UNL     1      42.629 -17.037 -39.857  0.00  0.00    -0.016 A 
ATOM     14  C   UNL     1      42.770 -17.788 -38.674  0.00  0.00    -0.053 A 
ATOM     15  C   UNL     1      43.819 -18.705 -38.517  0.00  0.00    -0.026 A 
ATOM     16  C   UNL     1      44.638 -18.919 -39.620  0.00  0.00    +0.016 A 
ATOM     17  C   UNL     1      44.084 -19.314 -37.156  0.00  0.00    +0.024 C 
ATOM     18  H   UNL     1      45.656 -20.608 -37.413  0.00  0.00    +0.000 HD
ENDROOT
BRANCH   7  19
ATOM     19  O   UNL     1      47.293 -22.326 -42.448  0.00  0.00    -0.388 OA
ATOM     20  H   UNL     1      47.602 -21.881 -43.252  0.00  0.00    +0.000 HD
ENDBRANCH   7  19
BRANCH  12  21
ATOM     21  O   UNL     1      43.316 -16.314 -41.957  0.00  0.00    -0.491 OA
ATOM     22  C   UNL     1      43.156 -14.937 -41.644  0.00  0.00    +0.079 C 
ENDBRANCH  12  21
BRANCH   1  23
ATOM     23  C   UNL     1      45.616 -20.077 -35.445  0.00  0.00    +0.009 C 
BRANCH  23  24
ATOM     24  C   UNL     1      44.705 -19.208 -34.576  0.00  0.00    +0.058 C 
BRANCH  24  25
ATOM     25  C   UNL     1      45.523 -18.366 -33.629  0.00  0.00    +0.308 C 
ATOM     26  O   UNL     1      46.635 -17.914 -33.862  0.00  0.00    -0.251 OA
BRANCH  25  27
ATOM     27  O   UNL     1      44.844 -18.204 -32.458  0.00  0.00    -0.465 OA
BRANCH  27  29
ATOM     28  C   UNL     1      44.224 -15.920 -32.121  0.00  0.00    -0.031 C 
ATOM     29  C   UNL     1      45.195 -17.019 -31.733  0.00  0.00    +0.090 C 
ENDBRANCH  27  29
ENDBRANCH  25  27
ENDBRANCH  24  25
ENDBRANCH  23  24
ENDBRANCH   1  23
TORSDOF 7
ENDMDL
MODEL 19
REMARK VINA RESULT:    -6.347     15.333     18.858
REMARK INTER + INTRA:          -9.325
REMARK INTER:                  -8.418
REMARK INTRA:                  -0.907
REMARK UNBOUND:                -0.566
REMARK  Name = cpd316.pdb
REMARK  9 active torsions:
REMARK  status: ('A' for Active; 'I' for Inactive)
REMARK    1  A    between atoms: C_1  and  C_2
REMARK    2  A    between atoms: C_2  and  O_3
REMARK    3  A    between atoms: O_3  and  C_4
REMARK    4  A    between atoms: C_4  and  C_6
REMARK    5  A    between atoms: C_6  and  C_7
REMARK    6  A    between atoms: C_7  and  N_8
REMARK    7  A    between atoms: C_14  and  O_15
REMARK    8  A    between atoms: C_20  and  O_21
REMARK    9  A    between atoms: O_21  and  C_22
REMARK                            x       y       z     vdW  Elec       q    Type
REMARK                         _______ _______ _______ _____ _____    ______ ____
ROOT
ATOM      1  N   UNL     1      40.539 -20.884 -36.934  0.00  0.00    -0.298 N 
ATOM      2  C   UNL     1      40.646 -19.459 -37.291  0.00  0.00    +0.000 C 
ATOM      3  C   UNL     1      42.086 -18.900 -37.137  0.00  0.00    -0.023 C 
ATOM      4  C   UNL     1      43.213 -19.949 -37.318  0.00  0.00    +0.056 C 
ATOM      5  C   UNL     1      43.418 -20.732 -36.045  0.00  0.00    -0.071 C 
ATOM      6  C   UNL     1      44.278 -20.283 -35.106  0.00  0.00    -0.059 C 
ATOM      7  C   UNL     1      45.141 -19.049 -35.268  0.00  0.00    +0.077 C 
ATOM      8  C   UNL     1      45.088 -18.384 -36.664  0.00  0.00    +0.015 C 
ATOM      9  C   UNL     1      44.628 -19.429 -37.670  0.00  0.00    +0.116 C 
ATOM     10  O   UNL     1      44.635 -19.045 -39.049  0.00  0.00    -0.484 OA
ATOM     11  C   UNL     1      43.844 -20.048 -39.595  0.00  0.00    +0.167 A 
ATOM     12  C   UNL     1      43.788 -20.405 -40.932  0.00  0.00    +0.162 A 
ATOM     13  C   UNL     1      42.803 -21.329 -41.299  0.00  0.00    -0.016 A 
ATOM     14  C   UNL     1      41.876 -21.824 -40.363  0.00  0.00    -0.053 A 
ATOM     15  C   UNL     1      41.917 -21.424 -39.019  0.00  0.00    -0.026 A 
ATOM     16  C   UNL     1      42.979 -20.612 -38.637  0.00  0.00    +0.016 A 
ATOM     17  C   UNL     1      40.771 -21.782 -38.096  0.00  0.00    +0.024 C 
ATOM     18  H   UNL     1      41.280 -21.042 -36.251  0.00  0.00    +0.000 HD
ENDROOT
BRANCH   7  19
ATOM     19  O   UNL     1      46.476 -19.476 -35.013  0.00  0.00    -0.388 OA
ATOM     20  H   UNL     1      46.809 -19.971 -35.777  0.00  0.00    +0.000 HD
ENDBRANCH   7  19
BRANCH  12  21
ATOM     21  O   UNL     1      44.562 -19.960 -41.963  0.00  0.00    -0.491 OA
ATOM     22  C   UNL     1      44.937 -20.918 -42.943  0.00  0.00    +0.079 C 
ENDBRANCH  12  21
BRANCH   1  23
ATOM     23  C   UNL     1      39.250 -21.216 -36.301  0.00  0.00    +0.009 C 
BRANCH  23  24
ATOM     24  C   UNL     1      39.193 -22.679 -35.856  0.00  0.00    +0.058 C 
BRANCH  24  25
ATOM     25  C   UNL     1      39.891 -22.856 -34.531  0.00  0.00    +0.308 C 
ATOM     26  O   UNL     1      40.810 -22.165 -34.115  0.00  0.00    -0.251 OA
BRANCH  25  27
ATOM     27  O   UNL     1      39.358 -23.926 -33.873  0.00  0.00    -0.465 OA
BRANCH  27  29
ATOM     28  C   UNL     1      37.367 -25.212 -33.572  0.00  0.00    -0.031 C 
ATOM     29  C   UNL     1      37.954 -23.814 -33.611  0.00  0.00    +0.090 C 
ENDBRANCH  27  29
ENDBRANCH  25  27
ENDBRANCH  24  25
ENDBRANCH  23  24
ENDBRANCH   1  23
TORSDOF 7
ENDMDL
MODEL 20
REMARK VINA RESULT:    -6.255     18.021     21.580
REMARK INTER + INTRA:          -9.198
REMARK INTER:                  -8.336
REMARK INTRA:                  -0.862
REMARK UNBOUND:                -0.566
REMARK  Name = cpd316.pdb
REMARK  9 active torsions:
REMARK  status: ('A' for Active; 'I' for Inactive)
REMARK    1  A    between atoms: C_1  and  C_2
REMARK    2  A    between atoms: C_2  and  O_3
REMARK    3  A    between atoms: O_3  and  C_4
REMARK    4  A    between atoms: C_4  and  C_6
REMARK    5  A    between atoms: C_6  and  C_7
REMARK    6  A    between atoms: C_7  and  N_8
REMARK    7  A    between atoms: C_14  and  O_15
REMARK    8  A    between atoms: C_20  and  O_21
REMARK    9  A    between atoms: O_21  and  C_22
REMARK                            x       y       z     vdW  Elec       q    Type
REMARK                         _______ _______ _______ _____ _____    ______ ____
ROOT
ATOM      1  N   UNL     1      42.522 -19.314 -39.205  0.00  0.00    -0.298 N 
ATOM      2  C   UNL     1      43.711 -19.491 -38.354  0.00  0.00    +0.000 C 
ATOM      3  C   UNL     1      44.931 -20.062 -39.124  0.00  0.00    -0.023 C 
ATOM      4  C   UNL     1      44.964 -19.719 -40.635  0.00  0.00    +0.056 C 
ATOM      5  C   UNL     1      44.077 -20.660 -41.413  0.00  0.00    -0.071 C 
ATOM      6  C   UNL     1      44.574 -21.823 -41.884  0.00  0.00    -0.059 C 
ATOM      7  C   UNL     1      46.024 -22.240 -41.753  0.00  0.00    +0.077 C 
ATOM      8  C   UNL     1      46.968 -21.170 -41.156  0.00  0.00    +0.015 C 
ATOM      9  C   UNL     1      46.328 -19.805 -41.363  0.00  0.00    +0.116 C 
ATOM     10  O   UNL     1      47.107 -18.663 -40.990  0.00  0.00    -0.484 OA
ATOM     11  C   UNL     1      46.123 -17.683 -40.959  0.00  0.00    +0.167 A 
ATOM     12  C   UNL     1      46.332 -16.315 -41.010  0.00  0.00    +0.162 A 
ATOM     13  C   UNL     1      45.217 -15.497 -40.799  0.00  0.00    -0.016 A 
ATOM     14  C   UNL     1      43.956 -16.040 -40.491  0.00  0.00    -0.053 A 
ATOM     15  C   UNL     1      43.765 -17.427 -40.402  0.00  0.00    -0.026 A 
ATOM     16  C   UNL     1      44.844 -18.233 -40.745  0.00  0.00    +0.016 A 
ATOM     17  C   UNL     1      42.468 -17.969 -39.835  0.00  0.00    +0.024 C 
ATOM     18  H   UNL     1      42.618 -20.013 -39.942  0.00  0.00    +0.000 HD
ENDROOT
BRANCH   7  19
ATOM     19  O   UNL     1      46.457 -22.548 -43.076  0.00  0.00    -0.388 OA
ATOM     20  H   UNL     1      46.372 -21.760 -43.635  0.00  0.00    +0.000 HD
ENDBRANCH   7  19
BRANCH  12  21
ATOM     21  O   UNL     1      47.499 -15.642 -41.224  0.00  0.00    -0.491 OA
ATOM     22  C   UNL     1      48.017 -14.894 -40.133  0.00  0.00    +0.079 C 
ENDBRANCH  12  21
BRANCH   1  23
ATOM     23  C   UNL     1      41.263 -19.574 -38.485  0.00  0.00    +0.009 C 
BRANCH  23  24
ATOM     24  C   UNL     1      41.426 -20.667 -37.427  0.00  0.00    +0.058 C 
BRANCH  24  25
ATOM     25  C   UNL     1      41.419 -22.031 -38.071  0.00  0.00    +0.308 C 
ATOM     26  O   UNL     1      41.570 -22.253 -39.264  0.00  0.00    -0.251 OA
BRANCH  25  27
ATOM     27  O   UNL     1      41.192 -22.984 -37.122  0.00  0.00    -0.465 OA
BRANCH  27  29
ATOM     28  C   UNL     1      39.116 -23.238 -35.966  0.00  0.00    -0.031 C 
ATOM     29  C   UNL     1      40.451 -22.519 -35.987  0.00  0.00    +0.090 C 
ENDBRANCH  27  29
ENDBRANCH  25  27
ENDBRANCH  24  25
ENDBRANCH  23  24
ENDBRANCH   1  23
TORSDOF 7
ENDMDL
