REMARK  Name = cpd316.pdb
REMARK  9 active torsions:
REMARK  status: ('A' for Active; 'I' for Inactive)
REMARK    1  A    between atoms: C_1  and  C_2
REMARK    2  A    between atoms: C_2  and  O_3
REMARK    3  A    between atoms: O_3  and  C_4
REMARK    4  A    between atoms: C_4  and  C_6
REMARK    5  A    between atoms: C_6  and  C_7
REMARK    6  A    between atoms: C_7  and  N_8
REMARK    7  A    between atoms: C_14  and  O_15
REMARK    8  A    between atoms: C_20  and  O_21
REMARK    9  A    between atoms: O_21  and  C_22
REMARK                            x       y       z     vdW  Elec       q    Type
REMARK                         _______ _______ _______ _____ _____    ______ ____
ROOT
ATOM      1  N   UNL     1      -0.499  -0.825   0.027  0.00  0.00    -0.298 N 
ATOM      2  C   UNL     1      -0.787  -0.253  -1.299  0.00  0.00    +0.000 C 
ATOM      3  C   UNL     1      -1.817   0.907  -1.250  0.00  0.00    -0.023 C 
ATOM      4  C   UNL     1      -1.843   1.697   0.083  0.00  0.00    +0.056 C 
ATOM      5  C   UNL     1      -2.667   0.968   1.116  0.00  0.00    -0.071 C 
ATOM      6  C   UNL     1      -3.995   1.194   1.203  0.00  0.00    -0.059 C 
ATOM      7  C   UNL     1      -4.738   2.213   0.365  0.00  0.00    +0.077 C 
ATOM      8  C   UNL     1      -3.849   3.110  -0.527  0.00  0.00    +0.015 C 
ATOM      9  C   UNL     1      -2.446   3.123   0.062  0.00  0.00    +0.116 C 
ATOM     10  O   UNL     1      -1.496   4.002  -0.550  0.00  0.00    -0.484 OA
ATOM     11  C   UNL     1      -0.311   3.495  -0.033  0.00  0.00    +0.167 A 
ATOM     12  C   UNL     1       0.906   4.154   0.015  0.00  0.00    +0.162 A 
ATOM     13  C   UNL     1       2.015   3.406   0.424  0.00  0.00    -0.016 A 
ATOM     14  C   UNL     1       1.907   2.033   0.715  0.00  0.00    -0.053 A 
ATOM     15  C   UNL     1       0.676   1.366   0.624  0.00  0.00    -0.026 A 
ATOM     16  C   UNL     1      -0.442   2.145   0.348  0.00  0.00    +0.016 A 
ATOM     17  C   UNL     1       0.636  -0.146   0.706  0.00  0.00    +0.024 C 
ATOM     18  H   UNL     1      -1.345  -0.665   0.574  0.00  0.00    +0.000 HD
ENDROOT
BRANCH   7  19
ATOM     19  O   UNL     1      -5.438   3.038   1.293  0.00  0.00    -0.388 OA
ATOM     20  H   UNL     1      -4.802   3.482   1.875  0.00  0.00    +0.000 HD
ENDBRANCH   7  19
BRANCH  12  21
ATOM     21  O   UNL     1       1.182   5.451  -0.304  0.00  0.00    -0.491 OA
ATOM     22  C   UNL     1       0.070   6.313  -0.505  0.00  0.00    +0.079 C 
ENDBRANCH  12  21
BRANCH   1  23
ATOM     23  C   UNL     1      -0.249  -2.277  -0.022  0.00  0.00    +0.009 C 
BRANCH  23  24
ATOM     24  C   UNL     1      -1.546  -3.074  -0.173  0.00  0.00    +0.058 C 
BRANCH  24  25
ATOM     25  C   UNL     1      -1.265  -4.555  -0.126  0.00  0.00    +0.308 C 
ATOM     26  O   UNL     1      -0.156  -5.068  -0.160  0.00  0.00    -0.251 OA
BRANCH  25  27
ATOM     27  O   UNL     1      -2.442  -5.242  -0.064  0.00  0.00    -0.465 OA
BRANCH  27  29
ATOM     28  C   UNL     1      -3.671  -7.288   0.055  0.00  0.00    -0.031 C 
ATOM     29  C   UNL     1      -2.290  -6.666  -0.021  0.00  0.00    +0.090 C 
ENDBRANCH  27  29
ENDBRANCH  25  27
ENDBRANCH  24  25
ENDBRANCH  23  24
ENDBRANCH   1  23
TORSDOF 7
