@<TRIPOS>MOLECULE
*****
 27 30 0 0 0
SMALL
GASTEIGER

@<TRIPOS>ATOM
      1 C          -2.5764   -5.1937    0.0000 C.3     1  UNL1        0.0513
      2 C          -1.8131   -4.5734    0.0000 C.3     1  UNL1        0.2086
      3 O          -1.9686   -3.6021    0.0000 O.3     1  UNL1       -0.4485
      4 C          -1.2053   -2.9818    0.0000 C.2     1  UNL1        0.3184
      5 O          -0.2864   -3.3327    0.0000 O.2     1  UNL1       -0.2501
      6 C          -1.3608   -2.0106    0.0000 C.3     1  UNL1        0.1268
      7 C          -0.5975   -1.3903    0.0000 C.3     1  UNL1        0.0841
      8 N          -0.7530   -0.4191    0.0000 N.3     1  UNL1       -0.2684
      9 C          -1.5992   -0.2561    0.0000 C.3     1  UNL1        0.0732
     10 C          -2.1427    0.4127    0.0000 C.3     1  UNL1        0.0290
     11 C          -2.1291    1.2743    0.0000 C.3     1  UNL1        0.0780
     12 C          -2.9416    0.8057    0.0000 C.2     1  UNL1       -0.0211
     13 C          -3.7534    1.2747    0.0000 C.2     1  UNL1        0.0021
     14 C          -3.7532    2.2128    0.0000 C.3     1  UNL1        0.1773
     15 O          -4.5854    2.6934    0.0000 O.3     1  UNL1       -0.2182
     16 C          -2.9412    2.6814    0.0000 C.3     1  UNL1        0.0816
     17 C          -2.1289    2.2124    0.0000 C.3     1  UNL1        0.1762
     18 O          -1.3169    2.6811    0.0000 O.3     1  UNL1       -0.4757
     19 C          -0.5046    2.2121    0.0000 C.ar    1  UNL1        0.1682
     20 C           0.3078    2.6808    0.0000 C.ar    1  UNL1        0.1721
     21 O           0.3081    3.6183    0.0000 O.3     1  UNL1       -0.4684
     22 C          -0.5036    4.0873    0.0000 C.3     1  UNL1        0.2526
     23 C           1.1196    2.2118    0.0000 C.ar    1  UNL1        0.0397
     24 C           1.1194    1.2737    0.0000 C.ar    1  UNL1        0.0001
     25 C           0.3074    0.8050    0.0000 C.ar    1  UNL1       -0.0066
     26 C          -0.5048    1.2740    0.0000 C.ar    1  UNL1        0.0187
     27 C          -0.0000   -0.0000    0.0000 C.3     1  UNL1        0.0990
@<TRIPOS>BOND
     1     1     2    1
     2     2     3    1
     3     3     4    1
     4     4     5    2
     5     4     6    1
     6     6     7    1
     7     7     8    1
     8     8     9    1
     9     9    10    1
    10    10    11    1
    11    11    12    1
    12    12    13    2
    13    13    14    1
    14    14    15    1
    15    14    16    1
    16    16    17    1
    17    11    17    1
    18    17    18    1
    19    18    19    1
    20    19    20   ar
    21    20    21    1
    22    21    22    1
    23    20    23   ar
    24    23    24   ar
    25    24    25   ar
    26    25    26   ar
    27    19    26   ar
    28    11    26    1
    29    25    27    1
    30     8    27    1
