MODEL 1
REMARK VINA RESULT:    -8.788      0.000      0.000
REMARK INTER + INTRA:         -10.752
REMARK INTER:                 -10.329
REMARK INTRA:                  -0.422
REMARK UNBOUND:                -0.422
REMARK  Name = cpd260.pdb
REMARK  8 active torsions:
REMARK  status: ('A' for Active; 'I' for Inactive)
REMARK    1  A    between atoms: C_1  and  C_2
REMARK    2  A    between atoms: C_4  and  C_5
REMARK    3  A    between atoms: C_7  and  N_8
REMARK    4  A    between atoms: C_9  and  O_11
REMARK    5  A    between atoms: O_11  and  C_12
REMARK    6  A    between atoms: C_18  and  C_19
REMARK    7  A    between atoms: N_22  and  C_23
REMARK    8  A    between atoms: N_26  and  C_27
REMARK                            x       y       z     vdW  Elec       q    Type
REMARK                         _______ _______ _______ _____ _____    ______ ____
ROOT
ATOM      1  C   UNL A   1      36.604 -35.778 -31.178  0.00  0.00    +0.134 A 
ATOM      2  C   UNL A   1      36.521 -36.618 -30.060  0.00  0.00    -0.017 A 
ATOM      3  C   UNL A   1      37.676 -37.228 -29.571  0.00  0.00    -0.037 A 
ATOM      4  C   UNL A   1      38.897 -36.929 -30.157  0.00  0.00    +0.032 A 
ATOM      5  C   UNL A   1      38.969 -36.032 -31.219  0.00  0.00    -0.017 A 
ATOM      6  C   UNL A   1      37.829 -35.455 -31.759  0.00  0.00    -0.014 A 
ATOM      7  C   UNL A   1      40.418 -35.892 -31.612  0.00  0.00    +0.002 C 
ATOM      8  C   UNL A   1      40.755 -34.425 -31.911  0.00  0.00    -0.055 C 
ATOM      9  C   UNL A   1      40.776 -36.843 -32.738  0.00  0.00    -0.054 C 
ATOM     10  C   UNL A   1      42.245 -37.050 -32.545  0.00  0.00    -0.048 C 
ATOM     11  N   UNL A   1      42.490 -37.063 -31.056  0.00  0.00    +0.433 N 
ATOM     12  C   UNL A   1      43.714 -36.240 -30.744  0.00  0.00    -0.060 C 
ATOM     13  O   UNL A   1      42.778 -38.359 -30.668  0.00  0.00    -0.289 OA
ATOM     14  C   UNL A   1      41.216 -36.375 -30.279  0.00  0.00    +0.039 C 
ATOM     15  N   UNL A   1      40.148 -37.461 -29.869  0.00  0.00    -0.341 N 
ATOM     16  C   UNL A   1      40.333 -38.259 -28.662  0.00  0.00    -0.001 C 
ENDROOT
BRANCH   1  17
ATOM     17  O   UNL A   1      35.446 -35.185 -31.739  0.00  0.00    -0.411 OA
BRANCH  17  19
ATOM     18  N   UNL A   1      33.350 -34.187 -31.465  0.00  0.00    -0.251 N 
ATOM     19  C   UNL A   1      34.681 -34.180 -31.109  0.00  0.00    +0.410 C 
ATOM     20  O   UNL A   1      35.235 -33.387 -30.355  0.00  0.00    -0.226 OA
ATOM     21  H   UNL A   1      33.112 -34.756 -32.232  0.00  0.00    +0.000 HD
BRANCH  18  28
ATOM     22  C   UNL A   1      30.615 -30.062 -30.792  0.00  0.00    -0.040 C 
ATOM     23  C   UNL A   1      30.950 -31.489 -30.466  0.00  0.00    -0.048 A 
ATOM     24  C   UNL A   1      30.207 -32.185 -29.504  0.00  0.00    -0.056 A 
ATOM     25  C   UNL A   1      30.492 -33.524 -29.217  0.00  0.00    -0.048 A 
ATOM     26  C   UNL A   1      29.733 -34.250 -28.146  0.00  0.00    -0.040 C 
ATOM     27  C   UNL A   1      31.541 -34.158 -29.896  0.00  0.00    -0.037 A 
ATOM     28  C   UNL A   1      32.288 -33.480 -30.869  0.00  0.00    +0.037 A 
ATOM     29  C   UNL A   1      31.979 -32.149 -31.155  0.00  0.00    -0.037 A 
ENDBRANCH  18  28
ENDBRANCH  17  19
ENDBRANCH   1  17
TORSDOF 3
ENDMDL
MODEL 2
REMARK VINA RESULT:    -8.617      0.305      1.651
REMARK INTER + INTRA:         -10.550
REMARK INTER:                 -10.143
REMARK INTRA:                  -0.407
REMARK UNBOUND:                -0.422
REMARK  Name = cpd260.pdb
REMARK  8 active torsions:
REMARK  status: ('A' for Active; 'I' for Inactive)
REMARK    1  A    between atoms: C_1  and  C_2
REMARK    2  A    between atoms: C_4  and  C_5
REMARK    3  A    between atoms: C_7  and  N_8
REMARK    4  A    between atoms: C_9  and  O_11
REMARK    5  A    between atoms: O_11  and  C_12
REMARK    6  A    between atoms: C_18  and  C_19
REMARK    7  A    between atoms: N_22  and  C_23
REMARK    8  A    between atoms: N_26  and  C_27
REMARK                            x       y       z     vdW  Elec       q    Type
REMARK                         _______ _______ _______ _____ _____    ______ ____
ROOT
ATOM      1  C   UNL A   1      36.607 -36.037 -30.977  0.00  0.00    +0.134 A 
ATOM      2  C   UNL A   1      36.604 -36.890 -29.866  0.00  0.00    -0.017 A 
ATOM      3  C   UNL A   1      37.804 -37.438 -29.414  0.00  0.00    -0.037 A 
ATOM      4  C   UNL A   1      38.989 -37.066 -30.030  0.00  0.00    +0.032 A 
ATOM      5  C   UNL A   1      38.981 -36.157 -31.085  0.00  0.00    -0.017 A 
ATOM      6  C   UNL A   1      37.795 -35.640 -31.588  0.00  0.00    -0.014 A 
ATOM      7  C   UNL A   1      40.409 -35.931 -31.515  0.00  0.00    +0.002 C 
ATOM      8  C   UNL A   1      40.654 -34.445 -31.809  0.00  0.00    -0.055 C 
ATOM      9  C   UNL A   1      40.788 -36.850 -32.660  0.00  0.00    -0.054 C 
ATOM     10  C   UNL A   1      42.272 -36.976 -32.510  0.00  0.00    -0.048 C 
ATOM     11  N   UNL A   1      42.558 -36.987 -31.028  0.00  0.00    +0.433 N 
ATOM     12  C   UNL A   1      43.742 -36.099 -30.741  0.00  0.00    -0.060 C 
ATOM     13  O   UNL A   1      42.929 -38.268 -30.661  0.00  0.00    -0.289 OA
ATOM     14  C   UNL A   1      41.269 -36.379 -30.210  0.00  0.00    +0.039 C 
ATOM     15  N   UNL A   1      40.276 -37.528 -29.782  0.00  0.00    -0.341 N 
ATOM     16  C   UNL A   1      40.539 -38.324 -28.589  0.00  0.00    -0.001 C 
ENDROOT
BRANCH   1  17
ATOM     17  O   UNL A   1      35.403 -35.506 -31.500  0.00  0.00    -0.411 OA
BRANCH  17  19
ATOM     18  N   UNL A   1      33.287 -34.566 -31.184  0.00  0.00    -0.251 N 
ATOM     19  C   UNL A   1      34.626 -34.516 -30.862  0.00  0.00    +0.410 C 
ATOM     20  O   UNL A   1      35.175 -33.700 -30.131  0.00  0.00    -0.226 OA
ATOM     21  H   UNL A   1      33.046 -35.151 -31.938  0.00  0.00    +0.000 HD
BRANCH  18  28
ATOM     22  C   UNL A   1      29.396 -34.349 -28.060  0.00  0.00    -0.040 C 
ATOM     23  C   UNL A   1      30.288 -33.732 -29.097  0.00  0.00    -0.048 A 
ATOM     24  C   UNL A   1      30.069 -32.416 -29.525  0.00  0.00    -0.056 A 
ATOM     25  C   UNL A   1      30.914 -31.823 -30.467  0.00  0.00    -0.048 A 
ATOM     26  C   UNL A   1      30.642 -30.435 -30.965  0.00  0.00    -0.040 C 
ATOM     27  C   UNL A   1      31.980 -32.568 -30.991  0.00  0.00    -0.037 A 
ATOM     28  C   UNL A   1      32.220 -33.883 -30.568  0.00  0.00    +0.037 A 
ATOM     29  C   UNL A   1      31.376 -34.453 -29.614  0.00  0.00    -0.037 A 
ENDBRANCH  18  28
ENDBRANCH  17  19
ENDBRANCH   1  17
TORSDOF 3
ENDMDL
MODEL 3
REMARK VINA RESULT:    -8.543      3.238      4.110
REMARK INTER + INTRA:         -10.464
REMARK INTER:                  -9.903
REMARK INTRA:                  -0.561
REMARK UNBOUND:                -0.422
REMARK  Name = cpd260.pdb
REMARK  8 active torsions:
REMARK  status: ('A' for Active; 'I' for Inactive)
REMARK    1  A    between atoms: C_1  and  C_2
REMARK    2  A    between atoms: C_4  and  C_5
REMARK    3  A    between atoms: C_7  and  N_8
REMARK    4  A    between atoms: C_9  and  O_11
REMARK    5  A    between atoms: O_11  and  C_12
REMARK    6  A    between atoms: C_18  and  C_19
REMARK    7  A    between atoms: N_22  and  C_23
REMARK    8  A    between atoms: N_26  and  C_27
REMARK                            x       y       z     vdW  Elec       q    Type
REMARK                         _______ _______ _______ _____ _____    ______ ____
ROOT
ATOM      1  C   UNL A   1      36.194 -35.809 -30.464  0.00  0.00    +0.134 A 
ATOM      2  C   UNL A   1      36.271 -36.756 -29.435  0.00  0.00    -0.017 A 
ATOM      3  C   UNL A   1      37.488 -37.380 -29.164  0.00  0.00    -0.037 A 
ATOM      4  C   UNL A   1      38.617 -36.994 -29.871  0.00  0.00    +0.032 A 
ATOM      5  C   UNL A   1      38.536 -35.996 -30.838  0.00  0.00    -0.017 A 
ATOM      6  C   UNL A   1      37.327 -35.399 -31.165  0.00  0.00    -0.014 A 
ATOM      7  C   UNL A   1      39.919 -35.779 -31.400  0.00  0.00    +0.002 C 
ATOM      8  C   UNL A   1      40.194 -34.282 -31.592  0.00  0.00    -0.055 C 
ATOM      9  C   UNL A   1      40.138 -36.606 -32.652  0.00  0.00    -0.054 C 
ATOM     10  C   UNL A   1      41.622 -36.793 -32.674  0.00  0.00    -0.048 C 
ATOM     11  N   UNL A   1      42.061 -36.944 -31.238  0.00  0.00    +0.433 N 
ATOM     12  C   UNL A   1      43.305 -36.123 -31.007  0.00  0.00    -0.060 C 
ATOM     13  O   UNL A   1      42.416 -38.263 -31.022  0.00  0.00    -0.289 OA
ATOM     14  C   UNL A   1      40.892 -36.369 -30.237  0.00  0.00    +0.039 C 
ATOM     15  N   UNL A   1      39.903 -37.517 -29.802  0.00  0.00    -0.341 N 
ATOM     16  C   UNL A   1      40.256 -38.424 -28.716  0.00  0.00    -0.001 C 
ENDROOT
BRANCH   1  17
ATOM     17  O   UNL A   1      34.965 -35.196 -30.808  0.00  0.00    -0.411 OA
BRANCH  17  19
ATOM     18  N   UNL A   1      33.999 -36.430 -32.543  0.00  0.00    -0.251 N 
ATOM     19  C   UNL A   1      33.833 -35.891 -31.286  0.00  0.00    +0.410 C 
ATOM     20  O   UNL A   1      32.819 -35.932 -30.598  0.00  0.00    -0.226 OA
ATOM     21  H   UNL A   1      34.798 -36.133 -33.037  0.00  0.00    +0.000 HD
BRANCH  18  28
ATOM     22  C   UNL A   1      30.243 -37.566 -35.633  0.00  0.00    -0.040 C 
ATOM     23  C   UNL A   1      31.321 -37.964 -34.667  0.00  0.00    -0.048 A 
ATOM     24  C   UNL A   1      31.531 -39.315 -34.362  0.00  0.00    -0.056 A 
ATOM     25  C   UNL A   1      32.553 -39.698 -33.488  0.00  0.00    -0.048 A 
ATOM     26  C   UNL A   1      32.738 -41.140 -33.119  0.00  0.00    -0.040 C 
ATOM     27  C   UNL A   1      33.359 -38.708 -32.907  0.00  0.00    -0.037 A 
ATOM     28  C   UNL A   1      33.170 -37.353 -33.208  0.00  0.00    +0.037 A 
ATOM     29  C   UNL A   1      32.155 -36.991 -34.097  0.00  0.00    -0.037 A 
ENDBRANCH  18  28
ENDBRANCH  17  19
ENDBRANCH   1  17
TORSDOF 3
ENDMDL
MODEL 4
REMARK VINA RESULT:    -8.209      2.360      2.963
REMARK INTER + INTRA:         -10.071
REMARK INTER:                 -10.178
REMARK INTRA:                   0.107
REMARK UNBOUND:                -0.422
REMARK  Name = cpd260.pdb
REMARK  8 active torsions:
REMARK  status: ('A' for Active; 'I' for Inactive)
REMARK    1  A    between atoms: C_1  and  C_2
REMARK    2  A    between atoms: C_4  and  C_5
REMARK    3  A    between atoms: C_7  and  N_8
REMARK    4  A    between atoms: C_9  and  O_11
REMARK    5  A    between atoms: O_11  and  C_12
REMARK    6  A    between atoms: C_18  and  C_19
REMARK    7  A    between atoms: N_22  and  C_23
REMARK    8  A    between atoms: N_26  and  C_27
REMARK                            x       y       z     vdW  Elec       q    Type
REMARK                         _______ _______ _______ _____ _____    ______ ____
ROOT
ATOM      1  C   UNL A   1      36.738 -35.711 -30.835  0.00  0.00    +0.134 A 
ATOM      2  C   UNL A   1      36.661 -36.558 -29.722  0.00  0.00    -0.017 A 
ATOM      3  C   UNL A   1      37.800 -37.240 -29.296  0.00  0.00    -0.037 A 
ATOM      4  C   UNL A   1      39.007 -37.005 -29.938  0.00  0.00    +0.032 A 
ATOM      5  C   UNL A   1      39.079 -36.101 -30.994  0.00  0.00    -0.017 A 
ATOM      6  C   UNL A   1      37.950 -35.452 -31.473  0.00  0.00    -0.014 A 
ATOM      7  C   UNL A   1      40.514 -36.040 -31.456  0.00  0.00    +0.002 C 
ATOM      8  C   UNL A   1      40.921 -34.591 -31.758  0.00  0.00    -0.055 C 
ATOM      9  C   UNL A   1      40.761 -36.996 -32.608  0.00  0.00    -0.054 C 
ATOM     10  C   UNL A   1      42.223 -37.290 -32.489  0.00  0.00    -0.048 C 
ATOM     11  N   UNL A   1      42.538 -37.335 -31.014  0.00  0.00    +0.433 N 
ATOM     12  C   UNL A   1      43.822 -36.588 -30.755  0.00  0.00    -0.060 C 
ATOM     13  O   UNL A   1      42.769 -38.650 -30.652  0.00  0.00    -0.289 OA
ATOM     14  C   UNL A   1      41.346 -36.584 -30.169  0.00  0.00    +0.039 C 
ATOM     15  N   UNL A   1      40.238 -37.612 -29.717  0.00  0.00    -0.341 N 
ATOM     16  C   UNL A   1      40.434 -38.434 -28.528  0.00  0.00    -0.001 C 
ENDROOT
BRANCH   1  17
ATOM     17  O   UNL A   1      35.591 -35.045 -31.332  0.00  0.00    -0.411 OA
BRANCH  17  19
ATOM     18  N   UNL A   1      33.434 -34.861 -32.213  0.00  0.00    -0.251 N 
ATOM     19  C   UNL A   1      34.352 -35.672 -31.583  0.00  0.00    +0.410 C 
ATOM     20  O   UNL A   1      34.176 -36.826 -31.207  0.00  0.00    -0.226 OA
ATOM     21  H   UNL A   1      33.665 -33.905 -32.262  0.00  0.00    +0.000 HD
BRANCH  18  28
ATOM     22  C   UNL A   1      28.455 -34.640 -32.542  0.00  0.00    -0.040 C 
ATOM     23  C   UNL A   1      29.780 -35.197 -32.974  0.00  0.00    -0.048 A 
ATOM     24  C   UNL A   1      29.844 -36.156 -33.992  0.00  0.00    -0.056 A 
ATOM     25  C   UNL A   1      31.077 -36.657 -34.423  0.00  0.00    -0.048 A 
ATOM     26  C   UNL A   1      31.138 -37.726 -35.473  0.00  0.00    -0.040 C 
ATOM     27  C   UNL A   1      32.250 -36.196 -33.811  0.00  0.00    -0.037 A 
ATOM     28  C   UNL A   1      32.207 -35.229 -32.797  0.00  0.00    +0.037 A 
ATOM     29  C   UNL A   1      30.968 -34.728 -32.392  0.00  0.00    -0.037 A 
ENDBRANCH  18  28
ENDBRANCH  17  19
ENDBRANCH   1  17
TORSDOF 3
ENDMDL
MODEL 5
REMARK VINA RESULT:    -8.177      2.265      9.973
REMARK INTER + INTRA:         -10.034
REMARK INTER:                  -9.922
REMARK INTRA:                  -0.112
REMARK UNBOUND:                -0.422
REMARK  Name = cpd260.pdb
REMARK  8 active torsions:
REMARK  status: ('A' for Active; 'I' for Inactive)
REMARK    1  A    between atoms: C_1  and  C_2
REMARK    2  A    between atoms: C_4  and  C_5
REMARK    3  A    between atoms: C_7  and  N_8
REMARK    4  A    between atoms: C_9  and  O_11
REMARK    5  A    between atoms: O_11  and  C_12
REMARK    6  A    between atoms: C_18  and  C_19
REMARK    7  A    between atoms: N_22  and  C_23
REMARK    8  A    between atoms: N_26  and  C_27
REMARK                            x       y       z     vdW  Elec       q    Type
REMARK                         _______ _______ _______ _____ _____    ______ ____
ROOT
ATOM      1  C   UNL A   1      34.312 -34.724 -31.106  0.00  0.00    +0.134 A 
ATOM      2  C   UNL A   1      34.815 -33.430 -30.920  0.00  0.00    -0.017 A 
ATOM      3  C   UNL A   1      33.931 -32.370 -30.721  0.00  0.00    -0.037 A 
ATOM      4  C   UNL A   1      32.572 -32.632 -30.636  0.00  0.00    +0.032 A 
ATOM      5  C   UNL A   1      32.096 -33.935 -30.747  0.00  0.00    -0.017 A 
ATOM      6  C   UNL A   1      32.950 -35.000 -31.000  0.00  0.00    -0.014 A 
ATOM      7  C   UNL A   1      30.597 -33.900 -30.580  0.00  0.00    +0.002 C 
ATOM      8  C   UNL A   1      30.124 -35.073 -29.712  0.00  0.00    -0.055 C 
ATOM      9  C   UNL A   1      29.899 -33.814 -31.924  0.00  0.00    -0.054 C 
ATOM     10  C   UNL A   1      28.601 -33.151 -31.583  0.00  0.00    -0.048 C 
ATOM     11  N   UNL A   1      28.901 -32.144 -30.500  0.00  0.00    +0.433 N 
ATOM     12  C   UNL A   1      27.837 -32.226 -29.434  0.00  0.00    -0.060 C 
ATOM     13  O   UNL A   1      28.815 -30.874 -31.042  0.00  0.00    -0.289 OA
ATOM     14  C   UNL A   1      30.342 -32.499 -29.794  0.00  0.00    +0.039 C 
ATOM     15  N   UNL A   1      31.523 -31.730 -30.500  0.00  0.00    -0.341 N 
ATOM     16  C   UNL A   1      31.806 -30.340 -30.161  0.00  0.00    -0.001 C 
ENDROOT
BRANCH   1  17
ATOM     17  O   UNL A   1      35.174 -35.817 -31.367  0.00  0.00    -0.411 OA
BRANCH  17  19
ATOM     18  N   UNL A   1      37.400 -36.529 -31.347  0.00  0.00    -0.251 N 
ATOM     19  C   UNL A   1      36.314 -36.134 -30.597  0.00  0.00    +0.410 C 
ATOM     20  O   UNL A   1      36.250 -36.073 -29.375  0.00  0.00    -0.226 OA
ATOM     21  H   UNL A   1      37.223 -36.718 -32.297  0.00  0.00    +0.000 HD
BRANCH  18  28
ATOM     22  C   UNL A   1      42.321 -35.850 -31.867  0.00  0.00    -0.040 C 
ATOM     23  C   UNL A   1      41.141 -36.438 -31.150  0.00  0.00    -0.048 A 
ATOM     24  C   UNL A   1      41.331 -37.226 -30.008  0.00  0.00    -0.056 A 
ATOM     25  C   UNL A   1      40.236 -37.752 -29.315  0.00  0.00    -0.048 A 
ATOM     26  C   UNL A   1      40.445 -38.642 -28.126  0.00  0.00    -0.040 C 
ATOM     27  C   UNL A   1      38.942 -37.492 -29.788  0.00  0.00    -0.037 A 
ATOM     28  C   UNL A   1      38.733 -36.698 -30.924  0.00  0.00    +0.037 A 
ATOM     29  C   UNL A   1      39.837 -36.167 -31.592  0.00  0.00    -0.037 A 
ENDBRANCH  18  28
ENDBRANCH  17  19
ENDBRANCH   1  17
TORSDOF 3
ENDMDL
MODEL 6
REMARK VINA RESULT:    -8.173      2.906     10.363
REMARK INTER + INTRA:         -10.029
REMARK INTER:                  -9.621
REMARK INTRA:                  -0.409
REMARK UNBOUND:                -0.422
REMARK  Name = cpd260.pdb
REMARK  8 active torsions:
REMARK  status: ('A' for Active; 'I' for Inactive)
REMARK    1  A    between atoms: C_1  and  C_2
REMARK    2  A    between atoms: C_4  and  C_5
REMARK    3  A    between atoms: C_7  and  N_8
REMARK    4  A    between atoms: C_9  and  O_11
REMARK    5  A    between atoms: O_11  and  C_12
REMARK    6  A    between atoms: C_18  and  C_19
REMARK    7  A    between atoms: N_22  and  C_23
REMARK    8  A    between atoms: N_26  and  C_27
REMARK                            x       y       z     vdW  Elec       q    Type
REMARK                         _______ _______ _______ _____ _____    ______ ____
ROOT
ATOM      1  C   UNL A   1      33.036 -33.040 -31.781  0.00  0.00    +0.134 A 
ATOM      2  C   UNL A   1      33.422 -31.949 -30.991  0.00  0.00    -0.017 A 
ATOM      3  C   UNL A   1      32.453 -31.217 -30.307  0.00  0.00    -0.037 A 
ATOM      4  C   UNL A   1      31.130 -31.632 -30.361  0.00  0.00    +0.032 A 
ATOM      5  C   UNL A   1      30.776 -32.764 -31.089  0.00  0.00    -0.017 A 
ATOM      6  C   UNL A   1      31.713 -33.477 -31.824  0.00  0.00    -0.014 A 
ATOM      7  C   UNL A   1      29.291 -32.974 -30.930  0.00  0.00    +0.002 C 
ATOM      8  C   UNL A   1      28.975 -34.463 -30.737  0.00  0.00    -0.055 C 
ATOM      9  C   UNL A   1      28.520 -32.328 -32.065  0.00  0.00    -0.054 C 
ATOM     10  C   UNL A   1      27.185 -32.054 -31.449  0.00  0.00    -0.048 C 
ATOM     11  N   UNL A   1      27.441 -31.666 -30.013  0.00  0.00    +0.433 N 
ATOM     12  C   UNL A   1      26.445 -32.365 -29.122  0.00  0.00    -0.060 C 
ATOM     13  O   UNL A   1      27.208 -30.310 -29.875  0.00  0.00    -0.289 OA
ATOM     14  C   UNL A   1      28.943 -32.160 -29.565  0.00  0.00    +0.039 C 
ATOM     15  N   UNL A   1      30.009 -31.024 -29.809  0.00  0.00    -0.341 N 
ATOM     16  C   UNL A   1      30.176 -29.948 -28.839  0.00  0.00    -0.001 C 
ENDROOT
BRANCH   1  17
ATOM     17  O   UNL A   1      33.983 -33.773 -32.536  0.00  0.00    -0.411 OA
BRANCH  17  19
ATOM     18  N   UNL A   1      35.920 -34.682 -31.593  0.00  0.00    -0.251 N 
ATOM     19  C   UNL A   1      34.651 -34.927 -32.072  0.00  0.00    +0.410 C 
ATOM     20  O   UNL A   1      34.097 -36.017 -32.157  0.00  0.00    -0.226 OA
ATOM     21  H   UNL A   1      36.287 -33.788 -31.783  0.00  0.00    +0.000 HD
BRANCH  18  28
ATOM     22  C   UNL A   1      36.892 -37.637 -27.686  0.00  0.00    -0.040 C 
ATOM     23  C   UNL A   1      37.303 -36.965 -28.964  0.00  0.00    -0.048 A 
ATOM     24  C   UNL A   1      38.587 -37.166 -29.485  0.00  0.00    -0.056 A 
ATOM     25  C   UNL A   1      38.967 -36.570 -30.692  0.00  0.00    -0.048 A 
ATOM     26  C   UNL A   1      40.362 -36.739 -31.217  0.00  0.00    -0.040 C 
ATOM     27  C   UNL A   1      38.049 -35.755 -31.368  0.00  0.00    -0.037 A 
ATOM     28  C   UNL A   1      36.756 -35.551 -30.867  0.00  0.00    +0.037 A 
ATOM     29  C   UNL A   1      36.388 -36.169 -29.669  0.00  0.00    -0.037 A 
ENDBRANCH  18  28
ENDBRANCH  17  19
ENDBRANCH   1  17
TORSDOF 3
ENDMDL
MODEL 7
REMARK VINA RESULT:    -7.990     32.469     35.943
REMARK INTER + INTRA:          -9.813
REMARK INTER:                  -9.536
REMARK INTRA:                  -0.277
REMARK UNBOUND:                -0.422
REMARK  Name = cpd260.pdb
REMARK  8 active torsions:
REMARK  status: ('A' for Active; 'I' for Inactive)
REMARK    1  A    between atoms: C_1  and  C_2
REMARK    2  A    between atoms: C_4  and  C_5
REMARK    3  A    between atoms: C_7  and  N_8
REMARK    4  A    between atoms: C_9  and  O_11
REMARK    5  A    between atoms: O_11  and  C_12
REMARK    6  A    between atoms: C_18  and  C_19
REMARK    7  A    between atoms: N_22  and  C_23
REMARK    8  A    between atoms: N_26  and  C_27
REMARK                            x       y       z     vdW  Elec       q    Type
REMARK                         _______ _______ _______ _____ _____    ______ ____
ROOT
ATOM      1  C   UNL A   1      63.010 -20.505  -9.270  0.00  0.00    +0.134 A 
ATOM      2  C   UNL A   1      63.205 -19.950  -7.998  0.00  0.00    -0.017 A 
ATOM      3  C   UNL A   1      63.473 -20.787  -6.916  0.00  0.00    -0.037 A 
ATOM      4  C   UNL A   1      63.617 -22.149  -7.135  0.00  0.00    +0.032 A 
ATOM      5  C   UNL A   1      63.495 -22.674  -8.419  0.00  0.00    -0.017 A 
ATOM      6  C   UNL A   1      63.174 -21.870  -9.504  0.00  0.00    -0.014 A 
ATOM      7  C   UNL A   1      63.734 -24.161  -8.338  0.00  0.00    +0.002 C 
ATOM      8  C   UNL A   1      64.594 -24.633  -9.519  0.00  0.00    -0.055 C 
ATOM      9  C   UNL A   1      62.429 -24.919  -8.192  0.00  0.00    -0.054 C 
ATOM     10  C   UNL A   1      62.848 -26.175  -7.497  0.00  0.00    -0.048 C 
ATOM     11  N   UNL A   1      63.942 -25.791  -6.530  0.00  0.00    +0.433 N 
ATOM     12  C   UNL A   1      65.055 -26.806  -6.607  0.00  0.00    -0.060 C 
ATOM     13  O   UNL A   1      63.437 -25.859  -5.244  0.00  0.00    -0.289 OA
ATOM     14  C   UNL A   1      64.568 -24.331  -6.952  0.00  0.00    +0.039 C 
ATOM     15  N   UNL A   1      63.826 -23.159  -6.203  0.00  0.00    -0.341 N 
ATOM     16  C   UNL A   1      64.187 -22.813  -4.833  0.00  0.00    -0.001 C 
ENDROOT
BRANCH   1  17
ATOM     17  O   UNL A   1      62.680 -19.695 -10.383  0.00  0.00    -0.411 OA
BRANCH  17  19
ATOM     18  N   UNL A   1      60.420 -19.533 -10.959  0.00  0.00    -0.251 N 
ATOM     19  C   UNL A   1      61.529 -18.882 -10.464  0.00  0.00    +0.410 C 
ATOM     20  O   UNL A   1      61.603 -17.703 -10.138  0.00  0.00    -0.226 OA
ATOM     21  H   UNL A   1      60.583 -20.416 -11.362  0.00  0.00    +0.000 HD
BRANCH  18  28
ATOM     22  C   UNL A   1      56.572 -17.086  -8.923  0.00  0.00    -0.040 C 
ATOM     23  C   UNL A   1      57.161 -17.954  -9.996  0.00  0.00    -0.048 A 
ATOM     24  C   UNL A   1      56.368 -18.393 -11.063  0.00  0.00    -0.056 A 
ATOM     25  C   UNL A   1      56.917 -19.176 -12.084  0.00  0.00    -0.048 A 
ATOM     26  C   UNL A   1      56.052 -19.692 -13.195  0.00  0.00    -0.040 C 
ATOM     27  C   UNL A   1      58.272 -19.529 -12.018  0.00  0.00    -0.037 A 
ATOM     28  C   UNL A   1      59.083 -19.091 -10.962  0.00  0.00    +0.037 A 
ATOM     29  C   UNL A   1      58.522 -18.295  -9.961  0.00  0.00    -0.037 A 
ENDBRANCH  18  28
ENDBRANCH  17  19
ENDBRANCH   1  17
TORSDOF 3
ENDMDL
MODEL 8
REMARK VINA RESULT:    -7.745      2.657      9.486
REMARK INTER + INTRA:          -9.526
REMARK INTER:                  -9.059
REMARK INTRA:                  -0.467
REMARK UNBOUND:                -0.422
REMARK  Name = cpd260.pdb
REMARK  8 active torsions:
REMARK  status: ('A' for Active; 'I' for Inactive)
REMARK    1  A    between atoms: C_1  and  C_2
REMARK    2  A    between atoms: C_4  and  C_5
REMARK    3  A    between atoms: C_7  and  N_8
REMARK    4  A    between atoms: C_9  and  O_11
REMARK    5  A    between atoms: O_11  and  C_12
REMARK    6  A    between atoms: C_18  and  C_19
REMARK    7  A    between atoms: N_22  and  C_23
REMARK    8  A    between atoms: N_26  and  C_27
REMARK                            x       y       z     vdW  Elec       q    Type
REMARK                         _______ _______ _______ _____ _____    ______ ____
ROOT
ATOM      1  C   UNL A   1      33.599 -37.355 -29.660  0.00  0.00    +0.134 A 
ATOM      2  C   UNL A   1      32.886 -37.765 -30.794  0.00  0.00    -0.017 A 
ATOM      3  C   UNL A   1      31.998 -36.881 -31.406  0.00  0.00    -0.037 A 
ATOM      4  C   UNL A   1      31.896 -35.585 -30.923  0.00  0.00    +0.032 A 
ATOM      5  C   UNL A   1      32.670 -35.172 -29.842  0.00  0.00    -0.017 A 
ATOM      6  C   UNL A   1      33.520 -36.048 -29.181  0.00  0.00    -0.014 A 
ATOM      7  C   UNL A   1      32.363 -33.719 -29.578  0.00  0.00    +0.002 C 
ATOM      8  C   UNL A   1      33.650 -32.946 -29.260  0.00  0.00    -0.055 C 
ATOM      9  C   UNL A   1      31.285 -33.571 -28.521  0.00  0.00    -0.054 C 
ATOM     10  C   UNL A   1      30.673 -32.246 -28.853  0.00  0.00    -0.048 C 
ATOM     11  N   UNL A   1      30.678 -32.131 -30.358  0.00  0.00    +0.433 N 
ATOM     12  C   UNL A   1      31.128 -30.747 -30.751  0.00  0.00    -0.060 C 
ATOM     13  O   UNL A   1      29.379 -32.266 -30.814  0.00  0.00    -0.289 OA
ATOM     14  C   UNL A   1      31.749 -33.203 -30.993  0.00  0.00    +0.039 C 
ATOM     15  N   UNL A   1      31.044 -34.570 -31.341  0.00  0.00    -0.341 N 
ATOM     16  C   UNL A   1      30.299 -34.720 -32.586  0.00  0.00    -0.001 C 
ENDROOT
BRANCH   1  17
ATOM     17  O   UNL A   1      34.468 -38.241 -28.977  0.00  0.00    -0.411 OA
BRANCH  17  19
ATOM     18  N   UNL A   1      36.662 -37.514 -29.324  0.00  0.00    -0.251 N 
ATOM     19  C   UNL A   1      35.774 -38.564 -29.404  0.00  0.00    +0.410 C 
ATOM     20  O   UNL A   1      36.005 -39.690 -29.830  0.00  0.00    -0.226 OA
ATOM     21  H   UNL A   1      36.268 -36.628 -29.154  0.00  0.00    +0.000 HD
BRANCH  18  28
ATOM     22  C   UNL A   1      41.220 -38.759 -27.706  0.00  0.00    -0.040 C 
ATOM     23  C   UNL A   1      40.311 -38.090 -28.695  0.00  0.00    -0.048 A 
ATOM     24  C   UNL A   1      40.844 -37.433 -29.811  0.00  0.00    -0.056 A 
ATOM     25  C   UNL A   1      40.002 -36.835 -30.754  0.00  0.00    -0.048 A 
ATOM     26  C   UNL A   1      40.578 -36.082 -31.917  0.00  0.00    -0.040 C 
ATOM     27  C   UNL A   1      38.615 -36.889 -30.561  0.00  0.00    -0.037 A 
ATOM     28  C   UNL A   1      38.064 -37.551 -29.455  0.00  0.00    +0.037 A 
ATOM     29  C   UNL A   1      38.919 -38.157 -28.533  0.00  0.00    -0.037 A 
ENDBRANCH  18  28
ENDBRANCH  17  19
ENDBRANCH   1  17
TORSDOF 3
ENDMDL
MODEL 9
REMARK VINA RESULT:    -7.728     16.979     20.200
REMARK INTER + INTRA:          -9.506
REMARK INTER:                  -9.083
REMARK INTRA:                  -0.423
REMARK UNBOUND:                -0.422
REMARK  Name = cpd260.pdb
REMARK  8 active torsions:
REMARK  status: ('A' for Active; 'I' for Inactive)
REMARK    1  A    between atoms: C_1  and  C_2
REMARK    2  A    between atoms: C_4  and  C_5
REMARK    3  A    between atoms: C_7  and  N_8
REMARK    4  A    between atoms: C_9  and  O_11
REMARK    5  A    between atoms: O_11  and  C_12
REMARK    6  A    between atoms: C_18  and  C_19
REMARK    7  A    between atoms: N_22  and  C_23
REMARK    8  A    between atoms: N_26  and  C_27
REMARK                            x       y       z     vdW  Elec       q    Type
REMARK                         _______ _______ _______ _____ _____    ______ ____
ROOT
ATOM      1  C   UNL A   1      45.882 -19.157 -35.542  0.00  0.00    +0.134 A 
ATOM      2  C   UNL A   1      46.230 -17.913 -34.999  0.00  0.00    -0.017 A 
ATOM      3  C   UNL A   1      45.280 -17.181 -34.288  0.00  0.00    -0.037 A 
ATOM      4  C   UNL A   1      44.028 -17.736 -34.067  0.00  0.00    +0.032 A 
ATOM      5  C   UNL A   1      43.725 -19.006 -34.549  0.00  0.00    -0.017 A 
ATOM      6  C   UNL A   1      44.634 -19.732 -35.306  0.00  0.00    -0.014 A 
ATOM      7  C   UNL A   1      42.316 -19.341 -34.124  0.00  0.00    +0.002 C 
ATOM      8  C   UNL A   1      42.227 -20.800 -33.659  0.00  0.00    -0.055 C 
ATOM      9  C   UNL A   1      41.317 -18.982 -35.207  0.00  0.00    -0.054 C 
ATOM     10  C   UNL A   1      40.057 -18.749 -34.435  0.00  0.00    -0.048 C 
ATOM     11  N   UNL A   1      40.460 -18.098 -33.134  0.00  0.00    +0.433 N 
ATOM     12  C   UNL A   1      39.698 -18.735 -32.000  0.00  0.00    -0.060 C 
ATOM     13  O   UNL A   1      40.075 -16.770 -33.168  0.00  0.00    -0.289 OA
ATOM     14  C   UNL A   1      42.061 -18.348 -32.861  0.00  0.00    +0.039 C 
ATOM     15  N   UNL A   1      42.927 -17.164 -33.442  0.00  0.00    -0.341 N 
ATOM     16  C   UNL A   1      43.086 -15.927 -32.687  0.00  0.00    -0.001 C 
ENDROOT
BRANCH   1  17
ATOM     17  O   UNL A   1      46.801 -19.904 -36.317  0.00  0.00    -0.411 OA
BRANCH  17  19
ATOM     18  N   UNL A   1      46.558 -21.055 -38.338  0.00  0.00    -0.251 N 
ATOM     19  C   UNL A   1      46.874 -19.861 -37.726  0.00  0.00    +0.410 C 
ATOM     20  O   UNL A   1      47.231 -18.827 -38.278  0.00  0.00    -0.226 OA
ATOM     21  H   UNL A   1      46.491 -21.839 -37.745  0.00  0.00    +0.000 HD
BRANCH  18  28
ATOM     22  C   UNL A   1      44.157 -20.162 -42.625  0.00  0.00    -0.040 C 
ATOM     23  C   UNL A   1      45.152 -20.935 -41.809  0.00  0.00    -0.048 A 
ATOM     24  C   UNL A   1      45.887 -21.974 -42.391  0.00  0.00    -0.056 A 
ATOM     25  C   UNL A   1      46.839 -22.678 -41.647  0.00  0.00    -0.048 A 
ATOM     26  C   UNL A   1      47.583 -23.829 -42.257  0.00  0.00    -0.040 C 
ATOM     27  C   UNL A   1      47.039 -22.338 -40.302  0.00  0.00    -0.037 A 
ATOM     28  C   UNL A   1      46.320 -21.294 -39.705  0.00  0.00    +0.037 A 
ATOM     29  C   UNL A   1      45.386 -20.591 -40.469  0.00  0.00    -0.037 A 
ENDBRANCH  18  28
ENDBRANCH  17  19
ENDBRANCH   1  17
TORSDOF 3
ENDMDL
MODEL 10
REMARK VINA RESULT:    -7.654      3.137     10.121
REMARK INTER + INTRA:          -9.418
REMARK INTER:                  -8.974
REMARK INTRA:                  -0.444
REMARK UNBOUND:                -0.422
REMARK  Name = cpd260.pdb
REMARK  8 active torsions:
REMARK  status: ('A' for Active; 'I' for Inactive)
REMARK    1  A    between atoms: C_1  and  C_2
REMARK    2  A    between atoms: C_4  and  C_5
REMARK    3  A    between atoms: C_7  and  N_8
REMARK    4  A    between atoms: C_9  and  O_11
REMARK    5  A    between atoms: O_11  and  C_12
REMARK    6  A    between atoms: C_18  and  C_19
REMARK    7  A    between atoms: N_22  and  C_23
REMARK    8  A    between atoms: N_26  and  C_27
REMARK                            x       y       z     vdW  Elec       q    Type
REMARK                         _______ _______ _______ _____ _____    ______ ____
ROOT
ATOM      1  C   UNL A   1      32.032 -35.262 -29.524  0.00  0.00    +0.134 A 
ATOM      2  C   UNL A   1      31.067 -35.816 -30.376  0.00  0.00    -0.017 A 
ATOM      3  C   UNL A   1      30.097 -34.991 -30.946  0.00  0.00    -0.037 A 
ATOM      4  C   UNL A   1      30.154 -33.625 -30.717  0.00  0.00    +0.032 A 
ATOM      5  C   UNL A   1      31.166 -33.083 -29.930  0.00  0.00    -0.017 A 
ATOM      6  C   UNL A   1      32.110 -33.887 -29.307  0.00  0.00    -0.014 A 
ATOM      7  C   UNL A   1      30.980 -31.586 -29.897  0.00  0.00    +0.002 C 
ATOM      8  C   UNL A   1      32.332 -30.872 -30.021  0.00  0.00    -0.055 C 
ATOM      9  C   UNL A   1      30.173 -31.161 -28.685  0.00  0.00    -0.054 C 
ATOM     10  C   UNL A   1      29.552 -29.876 -29.132  0.00  0.00    -0.048 C 
ATOM     11  N   UNL A   1      29.222 -30.040 -30.596  0.00  0.00    +0.433 N 
ATOM     12  C   UNL A   1      29.622 -28.792 -31.341  0.00  0.00    -0.060 C 
ATOM     13  O   UNL A   1      27.849 -30.153 -30.728  0.00  0.00    -0.289 OA
ATOM     14  C   UNL A   1      30.082 -31.292 -31.221  0.00  0.00    +0.039 C 
ATOM     15  N   UNL A   1      29.267 -32.640 -31.135  0.00  0.00    -0.341 N 
ATOM     16  C   UNL A   1      28.256 -32.956 -32.136  0.00  0.00    -0.001 C 
ENDROOT
BRANCH   1  17
ATOM     17  O   UNL A   1      32.998 -36.073 -28.882  0.00  0.00    -0.411 OA
BRANCH  17  19
ATOM     18  N   UNL A   1      35.282 -35.933 -29.363  0.00  0.00    -0.251 N 
ATOM     19  C   UNL A   1      34.114 -36.646 -29.529  0.00  0.00    +0.410 C 
ATOM     20  O   UNL A   1      33.966 -37.668 -30.191  0.00  0.00    -0.226 OA
ATOM     21  H   UNL A   1      35.186 -35.033 -28.975  0.00  0.00    +0.000 HD
BRANCH  18  28
ATOM     22  C   UNL A   1      39.507 -38.407 -28.376  0.00  0.00    -0.040 C 
ATOM     23  C   UNL A   1      38.693 -37.478 -29.228  0.00  0.00    -0.048 A 
ATOM     24  C   UNL A   1      39.238 -36.934 -30.398  0.00  0.00    -0.056 A 
ATOM     25  C   UNL A   1      38.476 -36.093 -31.216  0.00  0.00    -0.048 A 
ATOM     26  C   UNL A   1      39.082 -35.467 -32.436  0.00  0.00    -0.040 C 
ATOM     27  C   UNL A   1      37.160 -35.789 -30.841  0.00  0.00    -0.037 A 
ATOM     28  C   UNL A   1      36.595 -36.332 -29.679  0.00  0.00    +0.037 A 
ATOM     29  C   UNL A   1      37.365 -37.183 -28.885  0.00  0.00    -0.037 A 
ENDBRANCH  18  28
ENDBRANCH  17  19
ENDBRANCH   1  17
TORSDOF 3
ENDMDL
MODEL 11
REMARK VINA RESULT:    -7.621     15.573     17.329
REMARK INTER + INTRA:          -9.380
REMARK INTER:                  -9.252
REMARK INTRA:                  -0.128
REMARK UNBOUND:                -0.422
REMARK  Name = cpd260.pdb
REMARK  8 active torsions:
REMARK  status: ('A' for Active; 'I' for Inactive)
REMARK    1  A    between atoms: C_1  and  C_2
REMARK    2  A    between atoms: C_4  and  C_5
REMARK    3  A    between atoms: C_7  and  N_8
REMARK    4  A    between atoms: C_9  and  O_11
REMARK    5  A    between atoms: O_11  and  C_12
REMARK    6  A    between atoms: C_18  and  C_19
REMARK    7  A    between atoms: N_22  and  C_23
REMARK    8  A    between atoms: N_26  and  C_27
REMARK                            x       y       z     vdW  Elec       q    Type
REMARK                         _______ _______ _______ _____ _____    ______ ____
ROOT
ATOM      1  C   UNL A   1      42.145 -20.411 -38.461  0.00  0.00    +0.134 A 
ATOM      2  C   UNL A   1      42.915 -20.052 -37.347  0.00  0.00    -0.017 A 
ATOM      3  C   UNL A   1      44.304 -19.995 -37.461  0.00  0.00    -0.037 A 
ATOM      4  C   UNL A   1      44.890 -20.220 -38.698  0.00  0.00    +0.032 A 
ATOM      5  C   UNL A   1      44.102 -20.500 -39.811  0.00  0.00    -0.017 A 
ATOM      6  C   UNL A   1      42.722 -20.617 -39.713  0.00  0.00    -0.014 A 
ATOM      7  C   UNL A   1      45.016 -20.661 -41.000  0.00  0.00    +0.002 C 
ATOM      8  C   UNL A   1      44.417 -19.978 -42.237  0.00  0.00    -0.055 C 
ATOM      9  C   UNL A   1      45.377 -22.117 -41.221  0.00  0.00    -0.054 C 
ATOM     10  C   UNL A   1      46.696 -22.032 -41.921  0.00  0.00    -0.048 C 
ATOM     11  N   UNL A   1      47.431 -20.858 -41.319  0.00  0.00    +0.433 N 
ATOM     12  C   UNL A   1      48.073 -20.054 -42.422  0.00  0.00    -0.060 C 
ATOM     13  O   UNL A   1      48.461 -21.339 -40.532  0.00  0.00    -0.289 OA
ATOM     14  C   UNL A   1      46.366 -19.876 -40.543  0.00  0.00    +0.039 C 
ATOM     15  N   UNL A   1      46.241 -20.268 -39.020  0.00  0.00    -0.341 N 
ATOM     16  C   UNL A   1      47.230 -19.803 -38.055  0.00  0.00    -0.001 C 
ENDROOT
BRANCH   1  17
ATOM     17  O   UNL A   1      40.737 -20.535 -38.371  0.00  0.00    -0.411 OA
BRANCH  17  19
ATOM     18  N   UNL A   1      39.824 -20.903 -36.251  0.00  0.00    -0.251 N 
ATOM     19  C   UNL A   1      40.069 -21.425 -37.502  0.00  0.00    +0.410 C 
ATOM     20  O   UNL A   1      39.801 -22.556 -37.891  0.00  0.00    -0.226 OA
ATOM     21  H   UNL A   1      40.283 -20.058 -36.038  0.00  0.00    +0.000 HD
BRANCH  18  28
ATOM     22  C   UNL A   1      37.978 -24.700 -33.582  0.00  0.00    -0.040 C 
ATOM     23  C   UNL A   1      38.032 -23.243 -33.937  0.00  0.00    -0.048 A 
ATOM     24  C   UNL A   1      37.216 -22.323 -33.266  0.00  0.00    -0.056 A 
ATOM     25  C   UNL A   1      37.282 -20.959 -33.568  0.00  0.00    -0.048 A 
ATOM     26  C   UNL A   1      36.366 -19.985 -32.889  0.00  0.00    -0.040 C 
ATOM     27  C   UNL A   1      38.168 -20.524 -34.563  0.00  0.00    -0.037 A 
ATOM     28  C   UNL A   1      39.000 -21.428 -35.238  0.00  0.00    +0.037 A 
ATOM     29  C   UNL A   1      38.932 -22.784 -34.911  0.00  0.00    -0.037 A 
ENDBRANCH  18  28
ENDBRANCH  17  19
ENDBRANCH   1  17
TORSDOF 3
ENDMDL
MODEL 12
REMARK VINA RESULT:    -7.458      3.110     10.712
REMARK INTER + INTRA:          -9.189
REMARK INTER:                  -9.271
REMARK INTRA:                   0.082
REMARK UNBOUND:                -0.422
REMARK  Name = cpd260.pdb
REMARK  8 active torsions:
REMARK  status: ('A' for Active; 'I' for Inactive)
REMARK    1  A    between atoms: C_1  and  C_2
REMARK    2  A    between atoms: C_4  and  C_5
REMARK    3  A    between atoms: C_7  and  N_8
REMARK    4  A    between atoms: C_9  and  O_11
REMARK    5  A    between atoms: O_11  and  C_12
REMARK    6  A    between atoms: C_18  and  C_19
REMARK    7  A    between atoms: N_22  and  C_23
REMARK    8  A    between atoms: N_26  and  C_27
REMARK                            x       y       z     vdW  Elec       q    Type
REMARK                         _______ _______ _______ _____ _____    ______ ____
ROOT
ATOM      1  C   UNL A   1      32.438 -32.658 -30.937  0.00  0.00    +0.134 A 
ATOM      2  C   UNL A   1      32.450 -32.616 -29.537  0.00  0.00    -0.017 A 
ATOM      3  C   UNL A   1      31.436 -31.938 -28.860  0.00  0.00    -0.037 A 
ATOM      4  C   UNL A   1      30.393 -31.383 -29.587  0.00  0.00    +0.032 A 
ATOM      5  C   UNL A   1      30.359 -31.502 -30.974  0.00  0.00    -0.017 A 
ATOM      6  C   UNL A   1      31.384 -32.123 -31.675  0.00  0.00    -0.014 A 
ATOM      7  C   UNL A   1      29.100 -30.834 -31.467  0.00  0.00    +0.002 C 
ATOM      8  C   UNL A   1      28.445 -31.670 -32.575  0.00  0.00    -0.055 C 
ATOM      9  C   UNL A   1      29.362 -29.393 -31.862  0.00  0.00    -0.054 C 
ATOM     10  C   UNL A   1      28.025 -28.748 -31.679  0.00  0.00    -0.048 C 
ATOM     11  N   UNL A   1      27.393 -29.397 -30.471  0.00  0.00    +0.433 N 
ATOM     12  C   UNL A   1      25.945 -29.697 -30.767  0.00  0.00    -0.060 C 
ATOM     13  O   UNL A   1      27.400 -28.488 -29.428  0.00  0.00    -0.289 OA
ATOM     14  C   UNL A   1      28.142 -30.824 -30.152  0.00  0.00    +0.039 C 
ATOM     15  N   UNL A   1      29.324 -30.626 -29.126  0.00  0.00    -0.341 N 
ATOM     16  C   UNL A   1      29.054 -30.554 -27.694  0.00  0.00    -0.001 C 
ENDROOT
BRANCH   1  17
ATOM     17  O   UNL A   1      33.479 -33.287 -31.662  0.00  0.00    -0.411 OA
BRANCH  17  19
ATOM     18  N   UNL A   1      35.531 -34.369 -31.376  0.00  0.00    -0.251 N 
ATOM     19  C   UNL A   1      34.163 -34.445 -31.232  0.00  0.00    +0.410 C 
ATOM     20  O   UNL A   1      33.521 -35.402 -30.817  0.00  0.00    -0.226 OA
ATOM     21  H   UNL A   1      35.868 -33.615 -31.911  0.00  0.00    +0.000 HD
BRANCH  18  28
ATOM     22  C   UNL A   1      39.996 -36.604 -31.528  0.00  0.00    -0.040 C 
ATOM     23  C   UNL A   1      38.650 -36.391 -30.898  0.00  0.00    -0.048 A 
ATOM     24  C   UNL A   1      38.295 -37.091 -29.738  0.00  0.00    -0.056 A 
ATOM     25  C   UNL A   1      37.057 -36.875 -29.126  0.00  0.00    -0.048 A 
ATOM     26  C   UNL A   1      36.657 -37.669 -27.918  0.00  0.00    -0.040 C 
ATOM     27  C   UNL A   1      36.166 -35.955 -29.697  0.00  0.00    -0.037 A 
ATOM     28  C   UNL A   1      36.508 -35.238 -30.852  0.00  0.00    +0.037 A 
ATOM     29  C   UNL A   1      37.756 -35.454 -31.439  0.00  0.00    -0.037 A 
ENDBRANCH  18  28
ENDBRANCH  17  19
ENDBRANCH   1  17
TORSDOF 3
ENDMDL
MODEL 13
REMARK VINA RESULT:    -7.452      2.849     10.331
REMARK INTER + INTRA:          -9.181
REMARK INTER:                  -8.858
REMARK INTRA:                  -0.323
REMARK UNBOUND:                -0.422
REMARK  Name = cpd260.pdb
REMARK  8 active torsions:
REMARK  status: ('A' for Active; 'I' for Inactive)
REMARK    1  A    between atoms: C_1  and  C_2
REMARK    2  A    between atoms: C_4  and  C_5
REMARK    3  A    between atoms: C_7  and  N_8
REMARK    4  A    between atoms: C_9  and  O_11
REMARK    5  A    between atoms: O_11  and  C_12
REMARK    6  A    between atoms: C_18  and  C_19
REMARK    7  A    between atoms: N_22  and  C_23
REMARK    8  A    between atoms: N_26  and  C_27
REMARK                            x       y       z     vdW  Elec       q    Type
REMARK                         _______ _______ _______ _____ _____    ______ ____
ROOT
ATOM      1  C   UNL A   1      32.924 -32.758 -31.423  0.00  0.00    +0.134 A 
ATOM      2  C   UNL A   1      32.683 -31.439 -31.019  0.00  0.00    -0.017 A 
ATOM      3  C   UNL A   1      31.400 -31.066 -30.618  0.00  0.00    -0.037 A 
ATOM      4  C   UNL A   1      30.405 -32.030 -30.556  0.00  0.00    +0.032 A 
ATOM      5  C   UNL A   1      30.683 -33.352 -30.888  0.00  0.00    -0.017 A 
ATOM      6  C   UNL A   1      31.937 -33.739 -31.342  0.00  0.00    -0.014 A 
ATOM      7  C   UNL A   1      29.422 -34.157 -30.691  0.00  0.00    +0.002 C 
ATOM      8  C   UNL A   1      29.742 -35.507 -30.036  0.00  0.00    -0.055 C 
ATOM      9  C   UNL A   1      28.639 -34.275 -31.985  0.00  0.00    -0.054 C 
ATOM     10  C   UNL A   1      27.236 -34.475 -31.508  0.00  0.00    -0.048 C 
ATOM     11  N   UNL A   1      27.074 -33.629 -30.268  0.00  0.00    +0.433 N 
ATOM     12  C   UNL A   1      26.342 -34.422 -29.215  0.00  0.00    -0.060 C 
ATOM     13  O   UNL A   1      26.270 -32.546 -30.575  0.00  0.00    -0.289 OA
ATOM     14  C   UNL A   1      28.553 -33.243 -29.664  0.00  0.00    +0.039 C 
ATOM     15  N   UNL A   1      29.061 -31.867 -30.243  0.00  0.00    -0.341 N 
ATOM     16  C   UNL A   1      28.601 -30.609 -29.668  0.00  0.00    -0.001 C 
ENDROOT
BRANCH   1  17
ATOM     17  O   UNL A   1      34.199 -33.163 -31.889  0.00  0.00    -0.411 OA
BRANCH  17  19
ATOM     18  N   UNL A   1      35.890 -34.765 -31.700  0.00  0.00    -0.251 N 
ATOM     19  C   UNL A   1      35.194 -33.751 -31.080  0.00  0.00    +0.410 C 
ATOM     20  O   UNL A   1      35.337 -33.363 -29.926  0.00  0.00    -0.226 OA
ATOM     21  H   UNL A   1      35.516 -35.086 -32.553  0.00  0.00    +0.000 HD
BRANCH  18  28
ATOM     22  C   UNL A   1      40.715 -35.946 -32.217  0.00  0.00    -0.040 C 
ATOM     23  C   UNL A   1      39.405 -36.045 -31.491  0.00  0.00    -0.048 A 
ATOM     24  C   UNL A   1      39.300 -36.820 -30.329  0.00  0.00    -0.056 A 
ATOM     25  C   UNL A   1      38.092 -36.892 -29.628  0.00  0.00    -0.048 A 
ATOM     26  C   UNL A   1      37.966 -37.768 -28.417  0.00  0.00    -0.040 C 
ATOM     27  C   UNL A   1      36.980 -36.188 -30.112  0.00  0.00    -0.037 A 
ATOM     28  C   UNL A   1      37.070 -35.400 -31.268  0.00  0.00    +0.037 A 
ATOM     29  C   UNL A   1      38.289 -35.326 -31.944  0.00  0.00    -0.037 A 
ENDBRANCH  18  28
ENDBRANCH  17  19
ENDBRANCH   1  17
TORSDOF 3
ENDMDL
MODEL 14
REMARK VINA RESULT:    -7.287     32.688     36.094
REMARK INTER + INTRA:          -8.987
REMARK INTER:                  -8.607
REMARK INTRA:                  -0.381
REMARK UNBOUND:                -0.422
REMARK  Name = cpd260.pdb
REMARK  8 active torsions:
REMARK  status: ('A' for Active; 'I' for Inactive)
REMARK    1  A    between atoms: C_1  and  C_2
REMARK    2  A    between atoms: C_4  and  C_5
REMARK    3  A    between atoms: C_7  and  N_8
REMARK    4  A    between atoms: C_9  and  O_11
REMARK    5  A    between atoms: O_11  and  C_12
REMARK    6  A    between atoms: C_18  and  C_19
REMARK    7  A    between atoms: N_22  and  C_23
REMARK    8  A    between atoms: N_26  and  C_27
REMARK                            x       y       z     vdW  Elec       q    Type
REMARK                         _______ _______ _______ _____ _____    ______ ____
ROOT
ATOM      1  C   UNL A   1      62.504 -20.101  -9.483  0.00  0.00    +0.134 A 
ATOM      2  C   UNL A   1      62.542 -21.246 -10.290  0.00  0.00    -0.017 A 
ATOM      3  C   UNL A   1      62.962 -22.458  -9.745  0.00  0.00    -0.037 A 
ATOM      4  C   UNL A   1      63.260 -22.523  -8.392  0.00  0.00    +0.032 A 
ATOM      5  C   UNL A   1      63.142 -21.392  -7.589  0.00  0.00    -0.017 A 
ATOM      6  C   UNL A   1      62.780 -20.161  -8.118  0.00  0.00    -0.014 A 
ATOM      7  C   UNL A   1      63.500 -21.784  -6.177  0.00  0.00    +0.002 C 
ATOM      8  C   UNL A   1      62.539 -21.129  -5.176  0.00  0.00    -0.055 C 
ATOM      9  C   UNL A   1      64.963 -21.512  -5.886  0.00  0.00    -0.054 C 
ATOM     10  C   UNL A   1      65.278 -22.498  -4.806  0.00  0.00    -0.048 C 
ATOM     11  N   UNL A   1      64.495 -23.750  -5.120  0.00  0.00    +0.433 N 
ATOM     12  C   UNL A   1      63.866 -24.276  -3.854  0.00  0.00    -0.060 C 
ATOM     13  O   UNL A   1      65.376 -24.723  -5.555  0.00  0.00    -0.289 OA
ATOM     14  C   UNL A   1      63.281 -23.396  -6.170  0.00  0.00    +0.039 C 
ATOM     15  N   UNL A   1      63.746 -23.602  -7.663  0.00  0.00    -0.341 N 
ATOM     16  C   UNL A   1      63.747 -24.933  -8.259  0.00  0.00    -0.001 C 
ENDROOT
BRANCH   1  17
ATOM     17  O   UNL A   1      62.138 -18.840 -10.013  0.00  0.00    -0.411 OA
BRANCH  17  19
ATOM     18  N   UNL A   1      59.889 -19.283 -10.473  0.00  0.00    -0.251 N 
ATOM     19  C   UNL A   1      61.034 -18.623 -10.865  0.00  0.00    +0.410 C 
ATOM     20  O   UNL A   1      61.173 -17.928 -11.864  0.00  0.00    -0.226 OA
ATOM     21  H   UNL A   1      60.002 -19.958  -9.765  0.00  0.00    +0.000 HD
BRANCH  18  28
ATOM     22  C   UNL A   1      56.227 -20.235 -13.733  0.00  0.00    -0.040 C 
ATOM     23  C   UNL A   1      56.774 -19.502 -12.543  0.00  0.00    -0.048 A 
ATOM     24  C   UNL A   1      55.980 -18.569 -11.864  0.00  0.00    -0.056 A 
ATOM     25  C   UNL A   1      56.469 -17.905 -10.735  0.00  0.00    -0.048 A 
ATOM     26  C   UNL A   1      55.639 -16.864 -10.045  0.00  0.00    -0.040 C 
ATOM     27  C   UNL A   1      57.774 -18.175 -10.298  0.00  0.00    -0.037 A 
ATOM     28  C   UNL A   1      58.579 -19.112 -10.959  0.00  0.00    +0.037 A 
ATOM     29  C   UNL A   1      58.067 -19.778 -12.074  0.00  0.00    -0.037 A 
ENDBRANCH  18  28
ENDBRANCH  17  19
ENDBRANCH   1  17
TORSDOF 3
ENDMDL
MODEL 15
REMARK VINA RESULT:    -7.245     15.809     19.161
REMARK INTER + INTRA:          -8.938
REMARK INTER:                  -8.384
REMARK INTRA:                  -0.554
REMARK UNBOUND:                -0.422
REMARK  Name = cpd260.pdb
REMARK  8 active torsions:
REMARK  status: ('A' for Active; 'I' for Inactive)
REMARK    1  A    between atoms: C_1  and  C_2
REMARK    2  A    between atoms: C_4  and  C_5
REMARK    3  A    between atoms: C_7  and  N_8
REMARK    4  A    between atoms: C_9  and  O_11
REMARK    5  A    between atoms: O_11  and  C_12
REMARK    6  A    between atoms: C_18  and  C_19
REMARK    7  A    between atoms: N_22  and  C_23
REMARK    8  A    between atoms: N_26  and  C_27
REMARK                            x       y       z     vdW  Elec       q    Type
REMARK                         _______ _______ _______ _____ _____    ______ ____
ROOT
ATOM      1  C   UNL A   1      44.004 -19.432 -35.743  0.00  0.00    +0.134 A 
ATOM      2  C   UNL A   1      43.399 -18.223 -36.114  0.00  0.00    -0.017 A 
ATOM      3  C   UNL A   1      42.027 -18.056 -35.930  0.00  0.00    -0.037 A 
ATOM      4  C   UNL A   1      41.301 -19.063 -35.313  0.00  0.00    +0.032 A 
ATOM      5  C   UNL A   1      41.933 -20.226 -34.882  0.00  0.00    -0.017 A 
ATOM      6  C   UNL A   1      43.286 -20.440 -35.102  0.00  0.00    -0.014 A 
ATOM      7  C   UNL A   1      40.896 -21.104 -34.228  0.00  0.00    +0.002 C 
ATOM      8  C   UNL A   1      41.462 -21.751 -32.956  0.00  0.00    -0.055 C 
ATOM      9  C   UNL A   1      40.320 -22.101 -35.215  0.00  0.00    -0.054 C 
ATOM     10  C   UNL A   1      38.964 -22.384 -34.650  0.00  0.00    -0.048 C 
ATOM     11  N   UNL A   1      38.458 -21.087 -34.066  0.00  0.00    +0.433 N 
ATOM     12  C   UNL A   1      37.829 -21.357 -32.722  0.00  0.00    -0.060 C 
ATOM     13  O   UNL A   1      37.451 -20.600 -34.880  0.00  0.00    -0.289 OA
ATOM     14  C   UNL A   1      39.716 -20.057 -33.830  0.00  0.00    +0.039 C 
ATOM     15  N   UNL A   1      39.931 -19.128 -35.085  0.00  0.00    -0.341 N 
ATOM     16  C   UNL A   1      39.112 -17.935 -35.270  0.00  0.00    -0.001 C 
ENDROOT
BRANCH   1  17
ATOM     17  O   UNL A   1      45.383 -19.662 -35.966  0.00  0.00    -0.411 OA
BRANCH  17  19
ATOM     18  N   UNL A   1      45.414 -20.716 -38.052  0.00  0.00    -0.251 N 
ATOM     19  C   UNL A   1      45.980 -19.757 -37.241  0.00  0.00    +0.410 C 
ATOM     20  O   UNL A   1      46.937 -19.039 -37.511  0.00  0.00    -0.226 OA
ATOM     21  H   UNL A   1      44.791 -21.340 -37.612  0.00  0.00    +0.000 HD
BRANCH  18  28
ATOM     22  C   UNL A   1      44.246 -19.939 -42.845  0.00  0.00    -0.040 C 
ATOM     23  C   UNL A   1      45.063 -20.612 -41.781  0.00  0.00    -0.048 A 
ATOM     24  C   UNL A   1      46.075 -21.514 -42.133  0.00  0.00    -0.056 A 
ATOM     25  C   UNL A   1      46.863 -22.121 -41.149  0.00  0.00    -0.048 A 
ATOM     26  C   UNL A   1      47.906 -23.130 -41.526  0.00  0.00    -0.040 C 
ATOM     27  C   UNL A   1      46.617 -21.824 -39.801  0.00  0.00    -0.037 A 
ATOM     28  C   UNL A   1      45.615 -20.916 -39.431  0.00  0.00    +0.037 A 
ATOM     29  C   UNL A   1      44.851 -20.307 -40.428  0.00  0.00    -0.037 A 
ENDBRANCH  18  28
ENDBRANCH  17  19
ENDBRANCH   1  17
TORSDOF 3
ENDMDL
MODEL 16
REMARK VINA RESULT:    -7.003     17.090     20.294
REMARK INTER + INTRA:          -8.654
REMARK INTER:                  -8.302
REMARK INTRA:                  -0.352
REMARK UNBOUND:                -0.422
REMARK  Name = cpd260.pdb
REMARK  8 active torsions:
REMARK  status: ('A' for Active; 'I' for Inactive)
REMARK    1  A    between atoms: C_1  and  C_2
REMARK    2  A    between atoms: C_4  and  C_5
REMARK    3  A    between atoms: C_7  and  N_8
REMARK    4  A    between atoms: C_9  and  O_11
REMARK    5  A    between atoms: O_11  and  C_12
REMARK    6  A    between atoms: C_18  and  C_19
REMARK    7  A    between atoms: N_22  and  C_23
REMARK    8  A    between atoms: N_26  and  C_27
REMARK                            x       y       z     vdW  Elec       q    Type
REMARK                         _______ _______ _______ _____ _____    ______ ____
ROOT
ATOM      1  C   UNL A   1      45.526 -18.866 -35.512  0.00  0.00    +0.134 A 
ATOM      2  C   UNL A   1      45.273 -20.128 -34.958  0.00  0.00    -0.017 A 
ATOM      3  C   UNL A   1      44.137 -20.320 -34.172  0.00  0.00    -0.037 A 
ATOM      4  C   UNL A   1      43.240 -19.274 -34.016  0.00  0.00    +0.032 A 
ATOM      5  C   UNL A   1      43.470 -18.049 -34.637  0.00  0.00    -0.017 A 
ATOM      6  C   UNL A   1      44.619 -17.816 -35.379  0.00  0.00    -0.014 A 
ATOM      7  C   UNL A   1      42.314 -17.137 -34.310  0.00  0.00    +0.002 C 
ATOM      8  C   UNL A   1      41.895 -16.332 -35.547  0.00  0.00    -0.055 C 
ATOM      9  C   UNL A   1      42.619 -16.279 -33.097  0.00  0.00    -0.054 C 
ATOM     10  C   UNL A   1      41.259 -15.979 -32.550  0.00  0.00    -0.048 C 
ATOM     11  N   UNL A   1      40.423 -17.218 -32.764  0.00  0.00    +0.433 N 
ATOM     12  C   UNL A   1      39.062 -16.818 -33.278  0.00  0.00    -0.060 C 
ATOM     13  O   UNL A   1      40.217 -17.828 -31.539  0.00  0.00    -0.289 OA
ATOM     14  C   UNL A   1      41.126 -18.171 -33.903  0.00  0.00    +0.039 C 
ATOM     15  N   UNL A   1      42.089 -19.230 -33.240  0.00  0.00    -0.341 N 
ATOM     16  C   UNL A   1      41.553 -20.462 -32.673  0.00  0.00    -0.001 C 
ENDROOT
BRANCH   1  17
ATOM     17  O   UNL A   1      46.697 -18.617 -36.268  0.00  0.00    -0.411 OA
BRANCH  17  19
ATOM     18  N   UNL A   1      46.525 -20.206 -37.974  0.00  0.00    -0.251 N 
ATOM     19  C   UNL A   1      46.833 -18.904 -37.644  0.00  0.00    +0.410 C 
ATOM     20  O   UNL A   1      47.232 -18.029 -38.404  0.00  0.00    -0.226 OA
ATOM     21  H   UNL A   1      46.419 -20.829 -37.219  0.00  0.00    +0.000 HD
BRANCH  18  28
ATOM     22  C   UNL A   1      44.040 -20.633 -42.286  0.00  0.00    -0.040 C 
ATOM     23  C   UNL A   1      45.148 -21.039 -41.358  0.00  0.00    -0.048 A 
ATOM     24  C   UNL A   1      46.058 -22.033 -41.739  0.00  0.00    -0.056 A 
ATOM     25  C   UNL A   1      47.113 -22.395 -40.894  0.00  0.00    -0.048 A 
ATOM     26  C   UNL A   1      48.051 -23.500 -41.280  0.00  0.00    -0.040 C 
ATOM     27  C   UNL A   1      47.239 -21.759 -39.651  0.00  0.00    -0.037 A 
ATOM     28  C   UNL A   1      46.343 -20.755 -39.258  0.00  0.00    +0.037 A 
ATOM     29  C   UNL A   1      45.307 -20.395 -40.122  0.00  0.00    -0.037 A 
ENDBRANCH  18  28
ENDBRANCH  17  19
ENDBRANCH   1  17
TORSDOF 3
ENDMDL
MODEL 17
REMARK VINA RESULT:    -6.968     15.726     19.092
REMARK INTER + INTRA:          -8.613
REMARK INTER:                  -8.106
REMARK INTRA:                  -0.507
REMARK UNBOUND:                -0.422
REMARK  Name = cpd260.pdb
REMARK  8 active torsions:
REMARK  status: ('A' for Active; 'I' for Inactive)
REMARK    1  A    between atoms: C_1  and  C_2
REMARK    2  A    between atoms: C_4  and  C_5
REMARK    3  A    between atoms: C_7  and  N_8
REMARK    4  A    between atoms: C_9  and  O_11
REMARK    5  A    between atoms: O_11  and  C_12
REMARK    6  A    between atoms: C_18  and  C_19
REMARK    7  A    between atoms: N_22  and  C_23
REMARK    8  A    between atoms: N_26  and  C_27
REMARK                            x       y       z     vdW  Elec       q    Type
REMARK                         _______ _______ _______ _____ _____    ______ ____
ROOT
ATOM      1  C   UNL A   1      40.512 -21.357 -38.474  0.00  0.00    +0.134 A 
ATOM      2  C   UNL A   1      39.736 -20.272 -38.904  0.00  0.00    -0.017 A 
ATOM      3  C   UNL A   1      39.103 -19.462 -37.962  0.00  0.00    -0.037 A 
ATOM      4  C   UNL A   1      39.317 -19.702 -36.613  0.00  0.00    +0.032 A 
ATOM      5  C   UNL A   1      40.152 -20.738 -36.205  0.00  0.00    -0.017 A 
ATOM      6  C   UNL A   1      40.750 -21.593 -37.121  0.00  0.00    -0.014 A 
ATOM      7  C   UNL A   1      40.208 -20.724 -34.697  0.00  0.00    +0.002 C 
ATOM      8  C   UNL A   1      41.641 -20.977 -34.209  0.00  0.00    -0.055 C 
ATOM      9  C   UNL A   1      39.184 -21.672 -34.102  0.00  0.00    -0.054 C 
ATOM     10  C   UNL A   1      38.923 -21.076 -32.754  0.00  0.00    -0.048 C 
ATOM     11  N   UNL A   1      38.979 -19.577 -32.925  0.00  0.00    +0.433 N 
ATOM     12  C   UNL A   1      39.762 -18.975 -31.786  0.00  0.00    -0.060 C 
ATOM     13  O   UNL A   1      37.694 -19.075 -32.826  0.00  0.00    -0.289 OA
ATOM     14  C   UNL A   1      39.762 -19.206 -34.321  0.00  0.00    +0.039 C 
ATOM     15  N   UNL A   1      38.747 -19.062 -35.519  0.00  0.00    -0.341 N 
ATOM     16  C   UNL A   1      38.006 -17.821 -35.714  0.00  0.00    -0.001 C 
ENDROOT
BRANCH   1  17
ATOM     17  O   UNL A   1      41.124 -22.236 -39.400  0.00  0.00    -0.411 OA
BRANCH  17  19
ATOM     18  N   UNL A   1      43.270 -21.410 -39.823  0.00  0.00    -0.251 N 
ATOM     19  C   UNL A   1      42.078 -21.840 -40.363  0.00  0.00    +0.410 C 
ATOM     20  O   UNL A   1      41.780 -21.872 -41.551  0.00  0.00    -0.226 OA
ATOM     21  H   UNL A   1      43.272 -21.256 -38.850  0.00  0.00    +0.000 HD
BRANCH  18  28
ATOM     22  C   UNL A   1      47.265 -22.898 -42.424  0.00  0.00    -0.040 C 
ATOM     23  C   UNL A   1      46.475 -21.836 -41.717  0.00  0.00    -0.048 A 
ATOM     24  C   UNL A   1      46.947 -20.518 -41.671  0.00  0.00    -0.056 A 
ATOM     25  C   UNL A   1      46.201 -19.516 -41.042  0.00  0.00    -0.048 A 
ATOM     26  C   UNL A   1      46.736 -18.119 -40.944  0.00  0.00    -0.040 C 
ATOM     27  C   UNL A   1      44.978 -19.851 -40.444  0.00  0.00    -0.037 A 
ATOM     28  C   UNL A   1      44.485 -21.162 -40.489  0.00  0.00    +0.037 A 
ATOM     29  C   UNL A   1      45.235 -22.146 -41.137  0.00  0.00    -0.037 A 
ENDBRANCH  18  28
ENDBRANCH  17  19
ENDBRANCH   1  17
TORSDOF 3
ENDMDL
MODEL 18
REMARK VINA RESULT:    -6.945     15.572     17.408
REMARK INTER + INTRA:          -8.585
REMARK INTER:                  -8.607
REMARK INTRA:                   0.022
REMARK UNBOUND:                -0.422
REMARK  Name = cpd260.pdb
REMARK  8 active torsions:
REMARK  status: ('A' for Active; 'I' for Inactive)
REMARK    1  A    between atoms: C_1  and  C_2
REMARK    2  A    between atoms: C_4  and  C_5
REMARK    3  A    between atoms: C_7  and  N_8
REMARK    4  A    between atoms: C_9  and  O_11
REMARK    5  A    between atoms: O_11  and  C_12
REMARK    6  A    between atoms: C_18  and  C_19
REMARK    7  A    between atoms: N_22  and  C_23
REMARK    8  A    between atoms: N_26  and  C_27
REMARK                            x       y       z     vdW  Elec       q    Type
REMARK                         _______ _______ _______ _____ _____    ______ ____
ROOT
ATOM      1  C   UNL A   1      42.438 -19.516 -37.204  0.00  0.00    +0.134 A 
ATOM      2  C   UNL A   1      41.366 -19.980 -37.976  0.00  0.00    -0.017 A 
ATOM      3  C   UNL A   1      41.611 -20.531 -39.233  0.00  0.00    -0.037 A 
ATOM      4  C   UNL A   1      42.922 -20.678 -39.662  0.00  0.00    +0.032 A 
ATOM      5  C   UNL A   1      43.979 -20.281 -38.848  0.00  0.00    -0.017 A 
ATOM      6  C   UNL A   1      43.760 -19.679 -37.617  0.00  0.00    -0.014 A 
ATOM      7  C   UNL A   1      45.265 -20.596 -39.570  0.00  0.00    +0.002 C 
ATOM      8  C   UNL A   1      46.301 -21.174 -38.596  0.00  0.00    -0.055 C 
ATOM      9  C   UNL A   1      45.764 -19.395 -40.350  0.00  0.00    -0.054 C 
ATOM     10  C   UNL A   1      46.572 -20.020 -41.444  0.00  0.00    -0.048 C 
ATOM     11  N   UNL A   1      45.861 -21.292 -41.835  0.00  0.00    +0.433 N 
ATOM     12  C   UNL A   1      46.872 -22.399 -42.000  0.00  0.00    -0.060 C 
ATOM     13  O   UNL A   1      45.276 -21.107 -43.075  0.00  0.00    -0.289 OA
ATOM     14  C   UNL A   1      44.824 -21.738 -40.640  0.00  0.00    +0.039 C 
ATOM     15  N   UNL A   1      43.385 -21.143 -40.887  0.00  0.00    -0.341 N 
ATOM     16  C   UNL A   1      42.462 -21.801 -41.805  0.00  0.00    -0.001 C 
ENDROOT
BRANCH   1  17
ATOM     17  O   UNL A   1      42.227 -18.899 -35.947  0.00  0.00    -0.411 OA
BRANCH  17  19
ATOM     18  N   UNL A   1      40.174 -19.855 -35.366  0.00  0.00    -0.251 N 
ATOM     19  C   UNL A   1      41.408 -19.430 -34.926  0.00  0.00    +0.410 C 
ATOM     20  O   UNL A   1      41.820 -19.442 -33.772  0.00  0.00    -0.226 OA
ATOM     21  H   UNL A   1      39.927 -19.589 -36.281  0.00  0.00    +0.000 HD
BRANCH  18  28
ATOM     22  C   UNL A   1      38.235 -24.214 -33.889  0.00  0.00    -0.040 C 
ATOM     23  C   UNL A   1      38.205 -22.715 -33.957  0.00  0.00    -0.048 A 
ATOM     24  C   UNL A   1      37.178 -22.000 -33.329  0.00  0.00    -0.056 A 
ATOM     25  C   UNL A   1      37.160 -20.602 -33.360  0.00  0.00    -0.048 A 
ATOM     26  C   UNL A   1      36.027 -19.842 -32.737  0.00  0.00    -0.040 C 
ATOM     27  C   UNL A   1      38.179 -19.923 -34.043  0.00  0.00    -0.037 A 
ATOM     28  C   UNL A   1      39.220 -20.622 -34.669  0.00  0.00    +0.037 A 
ATOM     29  C   UNL A   1      39.231 -22.017 -34.612  0.00  0.00    -0.037 A 
ENDBRANCH  18  28
ENDBRANCH  17  19
ENDBRANCH   1  17
TORSDOF 3
ENDMDL
MODEL 19
REMARK VINA RESULT:    -6.878     15.928     19.282
REMARK INTER + INTRA:          -8.507
REMARK INTER:                  -8.085
REMARK INTRA:                  -0.422
REMARK UNBOUND:                -0.422
REMARK  Name = cpd260.pdb
REMARK  8 active torsions:
REMARK  status: ('A' for Active; 'I' for Inactive)
REMARK    1  A    between atoms: C_1  and  C_2
REMARK    2  A    between atoms: C_4  and  C_5
REMARK    3  A    between atoms: C_7  and  N_8
REMARK    4  A    between atoms: C_9  and  O_11
REMARK    5  A    between atoms: O_11  and  C_12
REMARK    6  A    between atoms: C_18  and  C_19
REMARK    7  A    between atoms: N_22  and  C_23
REMARK    8  A    between atoms: N_26  and  C_27
REMARK                            x       y       z     vdW  Elec       q    Type
REMARK                         _______ _______ _______ _____ _____    ______ ____
ROOT
ATOM      1  C   UNL A   1      43.886 -18.921 -33.666  0.00  0.00    +0.134 A 
ATOM      2  C   UNL A   1      43.263 -17.666 -33.649  0.00  0.00    -0.017 A 
ATOM      3  C   UNL A   1      41.872 -17.588 -33.692  0.00  0.00    -0.037 A 
ATOM      4  C   UNL A   1      41.129 -18.759 -33.674  0.00  0.00    +0.032 A 
ATOM      5  C   UNL A   1      41.764 -19.996 -33.614  0.00  0.00    -0.017 A 
ATOM      6  C   UNL A   1      43.148 -20.103 -33.625  0.00  0.00    -0.014 A 
ATOM      7  C   UNL A   1      40.700 -21.064 -33.575  0.00  0.00    +0.002 C 
ATOM      8  C   UNL A   1      41.075 -22.162 -32.571  0.00  0.00    -0.055 C 
ATOM      9  C   UNL A   1      40.396 -21.587 -34.966  0.00  0.00    -0.054 C 
ATOM     10  C   UNL A   1      38.987 -22.073 -34.839  0.00  0.00    -0.048 C 
ATOM     11  N   UNL A   1      38.280 -21.117 -33.910  0.00  0.00    +0.433 N 
ATOM     12  C   UNL A   1      37.440 -21.901 -32.932  0.00  0.00    -0.060 C 
ATOM     13  O   UNL A   1      37.403 -20.348 -34.653  0.00  0.00    -0.289 OA
ATOM     14  C   UNL A   1      39.387 -20.264 -33.044  0.00  0.00    +0.039 C 
ATOM     15  N   UNL A   1      39.751 -18.911 -33.768  0.00  0.00    -0.341 N 
ATOM     16  C   UNL A   1      38.885 -17.746 -33.633  0.00  0.00    -0.001 C 
ENDROOT
BRANCH   1  17
ATOM     17  O   UNL A   1      45.297 -19.041 -33.680  0.00  0.00    -0.411 OA
BRANCH  17  19
ATOM     18  N   UNL A   1      45.343 -19.388 -35.991  0.00  0.00    -0.251 N 
ATOM     19  C   UNL A   1      46.054 -19.416 -34.811  0.00  0.00    +0.410 C 
ATOM     20  O   UNL A   1      47.222 -19.759 -34.665  0.00  0.00    -0.226 OA
ATOM     21  H   UNL A   1      44.367 -19.288 -35.905  0.00  0.00    +0.000 HD
BRANCH  18  28
ATOM     22  C   UNL A   1      47.022 -22.012 -39.896  0.00  0.00    -0.040 C 
ATOM     23  C   UNL A   1      46.708 -20.708 -39.222  0.00  0.00    -0.048 A 
ATOM     24  C   UNL A   1      46.928 -19.497 -39.890  0.00  0.00    -0.056 A 
ATOM     25  C   UNL A   1      46.608 -18.279 -39.282  0.00  0.00    -0.048 A 
ATOM     26  C   UNL A   1      46.899 -16.983 -39.978  0.00  0.00    -0.040 C 
ATOM     27  C   UNL A   1      46.075 -18.284 -37.986  0.00  0.00    -0.037 A 
ATOM     28  C   UNL A   1      45.839 -19.486 -37.305  0.00  0.00    +0.037 A 
ATOM     29  C   UNL A   1      46.149 -20.693 -37.935  0.00  0.00    -0.037 A 
ENDBRANCH  18  28
ENDBRANCH  17  19
ENDBRANCH   1  17
TORSDOF 3
ENDMDL
MODEL 20
REMARK VINA RESULT:    -6.323     16.729     19.897
REMARK INTER + INTRA:          -7.854
REMARK INTER:                  -7.384
REMARK INTRA:                  -0.470
REMARK UNBOUND:                -0.422
REMARK  Name = cpd260.pdb
REMARK  8 active torsions:
REMARK  status: ('A' for Active; 'I' for Inactive)
REMARK    1  A    between atoms: C_1  and  C_2
REMARK    2  A    between atoms: C_4  and  C_5
REMARK    3  A    between atoms: C_7  and  N_8
REMARK    4  A    between atoms: C_9  and  O_11
REMARK    5  A    between atoms: O_11  and  C_12
REMARK    6  A    between atoms: C_18  and  C_19
REMARK    7  A    between atoms: N_22  and  C_23
REMARK    8  A    between atoms: N_26  and  C_27
REMARK                            x       y       z     vdW  Elec       q    Type
REMARK                         _______ _______ _______ _____ _____    ______ ____
ROOT
ATOM      1  C   UNL A   1      43.918 -18.689 -33.506  0.00  0.00    +0.134 A 
ATOM      2  C   UNL A   1      43.399 -17.418 -33.230  0.00  0.00    -0.017 A 
ATOM      3  C   UNL A   1      42.019 -17.245 -33.129  0.00  0.00    -0.037 A 
ATOM      4  C   UNL A   1      41.190 -18.353 -33.229  0.00  0.00    +0.032 A 
ATOM      5  C   UNL A   1      41.730 -19.620 -33.427  0.00  0.00    -0.017 A 
ATOM      6  C   UNL A   1      43.095 -19.812 -33.586  0.00  0.00    -0.014 A 
ATOM      7  C   UNL A   1      40.592 -20.610 -33.459  0.00  0.00    +0.002 C 
ATOM      8  C   UNL A   1      40.962 -21.882 -32.683  0.00  0.00    -0.055 C 
ATOM      9  C   UNL A   1      40.134 -20.874 -34.880  0.00  0.00    -0.054 C 
ATOM     10  C   UNL A   1      38.707 -21.284 -34.701  0.00  0.00    -0.048 C 
ATOM     11  N   UNL A   1      38.156 -20.453 -33.568  0.00  0.00    +0.433 N 
ATOM     12  C   UNL A   1      37.341 -21.332 -32.653  0.00  0.00    -0.060 C 
ATOM     13  O   UNL A   1      37.283 -19.516 -34.092  0.00  0.00    -0.289 OA
ATOM     14  C   UNL A   1      39.393 -19.827 -32.686  0.00  0.00    +0.039 C 
ATOM     15  N   UNL A   1      39.802 -18.399 -33.215  0.00  0.00    -0.341 N 
ATOM     16  C   UNL A   1      39.044 -17.219 -32.814  0.00  0.00    -0.001 C 
ENDROOT
BRANCH   1  17
ATOM     17  O   UNL A   1      45.309 -18.895 -33.672  0.00  0.00    -0.411 OA
BRANCH  17  19
ATOM     18  N   UNL A   1      45.435 -18.133 -35.878  0.00  0.00    -0.251 N 
ATOM     19  C   UNL A   1      45.959 -18.976 -34.923  0.00  0.00    +0.410 C 
ATOM     20  O   UNL A   1      46.874 -19.777 -35.073  0.00  0.00    -0.226 OA
ATOM     21  H   UNL A   1      44.577 -17.706 -35.654  0.00  0.00    +0.000 HD
BRANCH  18  28
ATOM     22  C   UNL A   1      48.022 -15.148 -38.936  0.00  0.00    -0.040 C 
ATOM     23  C   UNL A   1      47.185 -16.368 -38.683  0.00  0.00    -0.048 A 
ATOM     24  C   UNL A   1      46.879 -17.243 -39.732  0.00  0.00    -0.056 A 
ATOM     25  C   UNL A   1      46.127 -18.399 -39.500  0.00  0.00    -0.048 A 
ATOM     26  C   UNL A   1      45.752 -19.304 -40.636  0.00  0.00    -0.040 C 
ATOM     27  C   UNL A   1      45.670 -18.665 -38.201  0.00  0.00    -0.037 A 
ATOM     28  C   UNL A   1      45.975 -17.806 -37.137  0.00  0.00    +0.037 A 
ATOM     29  C   UNL A   1      46.742 -16.665 -37.385  0.00  0.00    -0.037 A 
ENDBRANCH  18  28
ENDBRANCH  17  19
ENDBRANCH   1  17
TORSDOF 3
ENDMDL
