REMARK  Name = cpd260.pdb
REMARK  8 active torsions:
REMARK  status: ('A' for Active; 'I' for Inactive)
REMARK    1  A    between atoms: C_1  and  C_2
REMARK    2  A    between atoms: C_4  and  C_5
REMARK    3  A    between atoms: C_7  and  N_8
REMARK    4  A    between atoms: C_9  and  O_11
REMARK    5  A    between atoms: O_11  and  C_12
REMARK    6  A    between atoms: C_18  and  C_19
REMARK    7  A    between atoms: N_22  and  C_23
REMARK    8  A    between atoms: N_26  and  C_27
REMARK                            x       y       z     vdW  Elec       q    Type
REMARK                         _______ _______ _______ _____ _____    ______ ____
ROOT
ATOM      1  C   UNL A   1      -2.348   1.159  -1.302  0.00  0.00    +0.134 A 
ATOM      2  C   UNL A   1      -2.203  -0.224  -1.132  0.00  0.00    -0.017 A 
ATOM      3  C   UNL A   1      -3.231  -0.956  -0.539  0.00  0.00    -0.037 A 
ATOM      4  C   UNL A   1      -4.410  -0.310  -0.198  0.00  0.00    +0.032 A 
ATOM      5  C   UNL A   1      -4.565   1.051  -0.445  0.00  0.00    -0.017 A 
ATOM      6  C   UNL A   1      -3.537   1.813  -0.983  0.00  0.00    -0.014 A 
ATOM      7  C   UNL A   1      -5.950   1.450   0.000  0.00  0.00    +0.002 C 
ATOM      8  C   UNL A   1      -6.585   2.412  -1.013  0.00  0.00    -0.055 C 
ATOM      9  C   UNL A   1      -5.938   1.980   1.421  0.00  0.00    -0.054 C 
ATOM     10  C   UNL A   1      -7.329   1.698   1.894  0.00  0.00    -0.048 C 
ATOM     11  N   UNL A   1      -7.738   0.382   1.278  0.00  0.00    +0.433 N 
ATOM     12  C   UNL A   1      -9.150   0.491   0.760  0.00  0.00    -0.060 C 
ATOM     13  O   UNL A   1      -7.757  -0.582   2.270  0.00  0.00    -0.289 OA
ATOM     14  C   UNL A   1      -6.763   0.041   0.000  0.00  0.00    +0.039 C 
ATOM     15  N   UNL A   1      -5.526  -0.829   0.447  0.00  0.00    -0.341 N 
ATOM     16  C   UNL A   1      -5.659  -2.272   0.611  0.00  0.00    -0.001 C 
ENDROOT
BRANCH   1  17
ATOM     17  O   UNL A   1      -1.305   1.946  -1.848  0.00  0.00    -0.411 OA
BRANCH  17  19
ATOM     18  N   UNL A   1       0.322   1.187  -0.351  0.00  0.00    -0.251 N 
ATOM     19  C   UNL A   1       0.067   1.744  -1.585  0.00  0.00    +0.410 C 
ATOM     20  O   UNL A   1       0.896   2.095  -2.417  0.00  0.00    -0.226 OA
ATOM     21  H   UNL A   1      -0.439   1.154   0.273  0.00  0.00    +0.000 HD
BRANCH  18  28
ATOM     22  C   UNL A   1       5.151   0.026  -0.880  0.00  0.00    -0.040 C 
ATOM     23  C   UNL A   1       3.876   0.029  -0.088  0.00  0.00    -0.048 A 
ATOM     24  C   UNL A   1       3.840  -0.536   1.193  0.00  0.00    -0.056 A 
ATOM     25  C   UNL A   1       2.665  -0.509   1.951  0.00  0.00    -0.048 A 
ATOM     26  C   UNL A   1       2.614  -1.166   3.298  0.00  0.00    -0.040 C 
ATOM     27  C   UNL A   1       1.516   0.080   1.405  0.00  0.00    -0.037 A 
ATOM     28  C   UNL A   1       1.536   0.659   0.129  0.00  0.00    +0.037 A 
ATOM     29  C   UNL A   1       2.723   0.638  -0.606  0.00  0.00    -0.037 A 
ENDBRANCH  18  28
ENDBRANCH  17  19
ENDBRANCH   1  17
TORSDOF 3
