@<TRIPOS>MOLECULE
*****
 28 31 0 0 0
SMALL
GASTEIGER

@<TRIPOS>ATOM
      1 C           1.7600    0.0124    0.0000 C.3     1  UNL1        0.0311
      2 C           0.8836   -0.5019    0.0000 C.ar    1  UNL1       -0.0209
      3 C           0.8907   -1.5180    0.0000 C.ar    1  UNL1       -0.0084
      4 C           0.0143   -2.0322    0.0000 C.ar    1  UNL1       -0.0209
      5 C           0.0214   -3.0484    0.0000 C.3     1  UNL1        0.0311
      6 C          -0.8693   -1.5304    0.0000 C.ar    1  UNL1        0.0124
      7 C          -0.8764   -0.5142    0.0000 C.ar    1  UNL1        0.0761
      8 N          -1.7600   -0.0124    0.0000 N.am    1  UNL1       -0.1421
      9 C          -1.7671    1.0037    0.0000 C.2     1  UNL1        0.4300
     10 O          -0.8907    1.5180    0.0000 O.2     1  UNL1       -0.2238
     11 O          -2.6507    1.5056    0.0000 O.3     1  UNL1       -0.4089
     12 C          -3.5271    0.9914    0.0000 C.ar    1  UNL1        0.1499
     13 C          -3.5206    0.0624    0.0000 C.ar    1  UNL1        0.0389
     14 C          -4.3218   -0.4077    0.0000 C.ar    1  UNL1        0.0175
     15 C          -5.1295    0.0511    0.0000 C.ar    1  UNL1        0.0484
     16 C          -5.1361    0.9801    0.0000 C.ar    1  UNL1        0.0010
     17 C          -4.3348    1.4502    0.0000 C.ar    1  UNL1        0.0349
     18 C          -5.9498    1.4499    0.0000 C.3     1  UNL1        0.0894
     19 C          -5.4498    2.3159    0.0000 C.3     1  UNL1        0.0123
     20 C          -6.7639    1.9199    0.0000 C.3     1  UNL1        0.0723
     21 C          -7.5840    1.4396    0.0000 C.3     1  UNL1        0.1067
     22 N          -7.5775    0.5106    0.0000 N.3     1  UNL1        0.2728
     23 C          -8.4418    0.0076    0.0000 C.3     1  UNL1        0.1677
     24 O          -8.4435    1.0106    0.0000 O.co2   1  UNL1       -0.7702
     25 C          -6.7635    0.0407    0.0000 C.3     1  UNL1        0.1391
     26 N          -5.9497   -0.4292    0.0000 N.pl3   1  UNL1       -0.2662
     27 C          -5.9466   -1.4292    0.0000 C.3     1  UNL1        0.1174
     28 C          -0.0000   -0.0000    0.0000 C.ar    1  UNL1        0.0124
@<TRIPOS>UNITY_ATOM_ATTR
22 1
charge 1
24 1
charge -1
@<TRIPOS>BOND
     1     1     2    1
     2     2     3   ar
     3     3     4   ar
     4     4     5    1
     5     4     6   ar
     6     6     7   ar
     7     7     8    1
     8     8     9   am
     9     9    10    2
    10     9    11    1
    11    11    12    1
    12    12    13   ar
    13    13    14   ar
    14    14    15   ar
    15    15    16   ar
    16    16    17   ar
    17    12    17   ar
    18    16    18    1
    19    18    19    1
    20    18    20    1
    21    20    21    1
    22    21    22    1
    23    22    23    1
    24    22    24    1
    25    22    25    1
    26    18    25    1
    27    25    26    1
    28    15    26    1
    29    26    27    1
    30     7    28   ar
    31     2    28   ar
