REMARK  Name = cpd53.pdb
REMARK  19 active torsions:
REMARK  status: ('A' for Active; 'I' for Inactive)
REMARK    1  A    between atoms: C_1  and  C_2
REMARK    2  A    between atoms: C_6  and  N_7
REMARK    3  A    between atoms: N_7  and  C_8
REMARK    4  A    between atoms: C_13  and  C_14
REMARK    5  A    between atoms: N_16  and  C_17
REMARK    6  A    between atoms: C_17  and  C_18
REMARK    7  A    between atoms: C_18  and  C_19
REMARK    8  A    between atoms: C_19  and  C_20
REMARK    9  A    between atoms: N_22  and  C_23
REMARK   10  A    between atoms: C_23  and  C_24
REMARK   11  A    between atoms: C_24  and  C_25
REMARK   12  A    between atoms: C_25  and  C_26
REMARK   13  A    between atoms: C_26  and  C_27
REMARK   14  A    between atoms: C_27  and  C_28
REMARK   15  A    between atoms: C_28  and  C_29
REMARK   16  A    between atoms: C_29  and  C_30
REMARK   17  A    between atoms: C_30  and  N_31
REMARK   18  A    between atoms: N_31  and  C_32
REMARK   19  A    between atoms: C_47  and  C_48
REMARK                            x       y       z     vdW  Elec       q    Type
REMARK                         _______ _______ _______ _____ _____    ______ ____
ROOT
ATOM      1  C   UNL A   1       5.140   4.991  -2.458  0.00  0.00    +0.213 C 
ATOM      2  O   UNL A   1       6.148   4.825  -3.138  0.00  0.00    -0.276 OA
ATOM      3  N   UNL A   1       5.020   5.974  -1.503  0.00  0.00    -0.315 N 
ATOM      4  H   UNL A   1       4.195   6.021  -0.967  0.00  0.00    +0.000 HD
ENDROOT
BRANCH   1   5
ATOM      5  C   UNL A   1       3.901   4.142  -2.652  0.00  0.00    +0.025 C 
BRANCH   5   6
ATOM      6  C   UNL A   1       3.435   3.467  -1.363  0.00  0.00    -0.029 C 
BRANCH   6   7
ATOM      7  C   UNL A   1       2.393   2.377  -1.616  0.00  0.00    +0.012 C 
BRANCH   7  10
ATOM      8  C   UNL A   1       0.204   3.649  -1.854  0.00  0.00    +0.246 C 
ATOM      9  O   UNL A   1      -0.539   4.240  -2.631  0.00  0.00    -0.270 OA
ATOM     10  N   UNL A   1       1.225   2.867  -2.332  0.00  0.00    -0.311 N 
ATOM     11  H   UNL A   1       1.159   2.604  -3.279  0.00  0.00    +0.000 HD
BRANCH   8  17
ATOM     12  C   UNL A   1      -0.368   2.719   0.422  0.00  0.00    +0.044 A 
ATOM     13  C   UNL A   1      -0.498   2.969   1.798  0.00  0.00    -0.040 A 
ATOM     14  C   UNL A   1      -0.343   4.257   2.322  0.00  0.00    -0.060 A 
ATOM     15  C   UNL A   1      -0.039   5.324   1.481  0.00  0.00    -0.061 A 
ATOM     16  C   UNL A   1       0.136   5.098   0.119  0.00  0.00    -0.048 A 
ATOM     17  C   UNL A   1       0.009   3.799  -0.399  0.00  0.00    +0.058 A 
BRANCH  12  18
ATOM     18  N   UNL A   1      -0.508   1.399  -0.083  0.00  0.00    -0.314 N 
ATOM     19  H   UNL A   1       0.071   1.155  -0.841  0.00  0.00    +0.000 HD
BRANCH  18  25
ATOM     20  C   UNL A   1      -1.620  -3.438   0.550  0.00  0.00    -0.039 C 
ATOM     21  C   UNL A   1      -1.959  -1.974   0.635  0.00  0.00    -0.046 A 
ATOM     22  C   UNL A   1      -3.238  -1.605   1.079  0.00  0.00    -0.058 A 
ATOM     23  C   UNL A   1      -3.606  -0.265   1.155  0.00  0.00    -0.060 A 
ATOM     24  C   UNL A   1      -2.696   0.724   0.795  0.00  0.00    -0.040 A 
ATOM     25  C   UNL A   1      -1.394   0.393   0.389  0.00  0.00    +0.035 A 
ATOM     26  C   UNL A   1      -1.020  -0.969   0.299  0.00  0.00    -0.026 A 
ATOM     27  C   UNL A   1       0.357  -1.339  -0.195  0.00  0.00    -0.038 C 
ENDBRANCH  18  25
ENDBRANCH  12  18
ENDBRANCH   8  17
ENDBRANCH   7  10
ENDBRANCH   6   7
ENDBRANCH   5   6
ENDBRANCH   1   5
BRANCH   3  28
ATOM     28  C   UNL A   1       6.071   6.942  -1.262  0.00  0.00    +0.012 C 
BRANCH  28  29
ATOM     29  C   UNL A   1       7.268   6.340  -0.527  0.00  0.00    -0.037 C 
BRANCH  29  30
ATOM     30  C   UNL A   1       8.307   7.412  -0.197  0.00  0.00    -0.052 C 
BRANCH  30  31
ATOM     31  C   UNL A   1       9.586   6.797   0.376  0.00  0.00    -0.053 C 
BRANCH  31  32
ATOM     32  C   UNL A   1      10.592   7.882   0.770  0.00  0.00    -0.053 C 
BRANCH  32  33
ATOM     33  C   UNL A   1      11.922   7.317   1.277  0.00  0.00    -0.052 C 
BRANCH  33  34
ATOM     34  C   UNL A   1      12.782   6.724   0.158  0.00  0.00    -0.037 C 
BRANCH  34  35
ATOM     35  C   UNL A   1      14.133   6.238   0.687  0.00  0.00    +0.009 C 
BRANCH  35  36
ATOM     36  N   UNL A   1      14.928   5.735  -0.442  0.00  0.00    -0.343 N 
ATOM     37  H   UNL A   1      14.649   5.802  -1.384  0.00  0.00    +0.000 HD
BRANCH  36  38
ATOM     38  C   UNL A   1      16.151   5.139  -0.014  0.00  0.00    +0.041 A 
ATOM     39  C   UNL A   1      17.334   5.901   0.073  0.00  0.00    -0.005 A 
ATOM     40  C   UNL A   1      18.480   5.260   0.551  0.00  0.00    +0.047 A 
ATOM     41  N   UNL A   1      18.491   3.973   0.975  0.00  0.00    -0.251 NA
ATOM     42  C   UNL A   1      17.364   3.254   0.903  0.00  0.00    +0.074 A 
ATOM     43  C   UNL A   1      17.405   1.933   1.327  0.00  0.00    -0.017 A 
ATOM     44  C   UNL A   1      16.277   1.119   1.266  0.00  0.00    +0.043 A 
ATOM     45 CL   UNL A   1      16.370  -0.515   1.799  0.00  0.00    -0.083 Cl
ATOM     46  C   UNL A   1      15.080   1.614   0.772  0.00  0.00    -0.043 A 
ATOM     47  C   UNL A   1      15.021   2.939   0.345  0.00  0.00    -0.049 A 
ATOM     48  C   UNL A   1      16.155   3.783   0.413  0.00  0.00    +0.022 A 
ATOM     49  C   UNL A   1      19.796   5.982   0.690  0.00  0.00    -0.010 C 
ATOM     50  C   UNL A   1      19.889   7.238  -0.167  0.00  0.00    -0.047 C 
ATOM     51  C   UNL A   1      18.647   8.091   0.038  0.00  0.00    -0.049 C 
ATOM     52  C   UNL A   1      17.398   7.332  -0.408  0.00  0.00    -0.024 C 
ENDBRANCH  36  38
ENDBRANCH  35  36
ENDBRANCH  34  35
ENDBRANCH  33  34
ENDBRANCH  32  33
ENDBRANCH  31  32
ENDBRANCH  30  31
ENDBRANCH  29  30
ENDBRANCH  28  29
ENDBRANCH   3  28
TORSDOF 17
