REMARK  Name = cpd75.pdb
REMARK  9 active torsions:
REMARK  status: ('A' for Active; 'I' for Inactive)
REMARK    1  A    between atoms: C_1  and  O_2
REMARK    2  A    between atoms: O_2  and  C_3
REMARK    3  A    between atoms: C_5  and  C_6
REMARK    4  A    between atoms: N_8  and  N_9
REMARK    5  A    between atoms: N_9  and  C_10
REMARK    6  A    between atoms: C_25  and  O_26
REMARK    7  A    between atoms: O_26  and  C_27
REMARK    8  A    between atoms: C_28  and  O_29
REMARK    9  A    between atoms: O_29  and  C_30
REMARK                            x       y       z     vdW  Elec       q    Type
REMARK                         _______ _______ _______ _____ _____    ______ ____
ROOT
ATOM      1  C   UNL A   1       2.573  -1.322  -1.330  0.00  0.00    +0.260 C 
ATOM      2  O   UNL A   1       2.702  -2.383  -1.938  0.00  0.00    -0.269 OA
ATOM      3  N   UNL A   1       3.575  -0.370  -1.269  0.00  0.00    -0.232 N 
ATOM      4  H   UNL A   1       3.448   0.475  -0.780  0.00  0.00    +0.000 HD
ENDROOT
BRANCH   1   7
ATOM      5  C   UNL A   1      -0.254   0.524   0.418  0.00  0.00    +0.166 A 
ATOM      6  C   UNL A   1       0.926   0.290  -0.291  0.00  0.00    -0.004 A 
ATOM      7  C   UNL A   1       1.323  -1.025  -0.577  0.00  0.00    +0.045 A 
ATOM      8  C   UNL A   1       0.524  -2.109  -0.180  0.00  0.00    -0.004 A 
ATOM      9  C   UNL A   1      -0.663  -1.892   0.519  0.00  0.00    +0.166 A 
ATOM     10  C   UNL A   1      -1.049  -0.570   0.801  0.00  0.00    +0.204 A 
BRANCH   5  12
ATOM     11  C   UNL A   1       0.157   2.868   0.614  0.00  0.00    +0.079 C 
ATOM     12  O   UNL A   1      -0.730   1.766   0.750  0.00  0.00    -0.491 OA
ENDBRANCH   5  12
BRANCH   9  13
ATOM     13  O   UNL A   1      -1.506  -2.879   0.958  0.00  0.00    -0.491 OA
ATOM     14  C   UNL A   1      -1.129  -4.227   0.710  0.00  0.00    +0.079 C 
ENDBRANCH   9  13
BRANCH  10  15
ATOM     15  O   UNL A   1      -2.193  -0.343   1.536  0.00  0.00    -0.488 OA
ATOM     16  C   UNL A   1      -3.313  -0.212   0.662  0.00  0.00    +0.079 C 
ENDBRANCH  10  15
ENDBRANCH   1   7
BRANCH   3  17
ATOM     17  N   UNL A   1       4.789  -0.658  -1.937  0.00  0.00    -0.263 N 
ATOM     18  H   UNL A   1       4.855  -0.972  -2.868  0.00  0.00    +0.000 HD
BRANCH  17  19
ATOM     19  C   UNL A   1       5.907  -0.430  -1.075  0.00  0.00    +0.058 A 
ATOM     20  C   UNL A   1       6.487  -1.489  -0.347  0.00  0.00    -0.003 A 
ATOM     21  C   UNL A   1       7.549  -1.177   0.505  0.00  0.00    +0.047 A 
ATOM     22  N   UNL A   1       7.994   0.087   0.703  0.00  0.00    -0.251 NA
ATOM     23  C   UNL A   1       7.427   1.095   0.028  0.00  0.00    +0.073 A 
ATOM     24  C   UNL A   1       7.904   2.382   0.241  0.00  0.00    -0.036 A 
ATOM     25  C   UNL A   1       7.378   3.487  -0.432  0.00  0.00    -0.060 A 
ATOM     26  C   UNL A   1       6.353   3.307  -1.348  0.00  0.00    -0.061 A 
ATOM     27  C   UNL A   1       5.858   2.024  -1.576  0.00  0.00    -0.051 A 
ATOM     28  C   UNL A   1       6.376   0.900  -0.885  0.00  0.00    +0.023 A 
ATOM     29  C   UNL A   1       8.249  -2.232   1.323  0.00  0.00    -0.010 C 
ATOM     30  C   UNL A   1       8.053  -3.641   0.778  0.00  0.00    -0.047 C 
ATOM     31  C   UNL A   1       6.574  -3.889   0.527  0.00  0.00    -0.049 C 
ATOM     32  C   UNL A   1       6.035  -2.920  -0.524  0.00  0.00    -0.024 C 
ENDBRANCH  17  19
ENDBRANCH   3  17
TORSDOF 6
