@<TRIPOS>MOLECULE
*****
 30 33 0 0 0
SMALL
GASTEIGER

@<TRIPOS>ATOM
      1 C           1.7321    2.0000    0.0000 C.3     1  UNL1        0.2526
      2 O           0.8660    1.5000    0.0000 O.3     1  UNL1       -0.4683
      3 C           0.8660    0.5000    0.0000 C.ar    1  UNL1        0.1756
      4 C           1.7321    0.0000    0.0000 C.ar    1  UNL1        0.0449
      5 C           1.7321   -1.0000    0.0000 C.ar    1  UNL1        0.0629
      6 C           2.5981   -1.5000    0.0000 C.2     1  UNL1        0.2843
      7 O           2.5981   -2.5000    0.0000 O.2     1  UNL1       -0.2667
      8 N           3.4641   -1.0000    0.0000 N.am    1  UNL1       -0.0867
      9 N           4.3301   -1.5000    0.0000 N.pl3   1  UNL1       -0.1253
     10 C           5.1962   -1.0000    0.0000 C.ar    1  UNL1        0.0877
     11 C           6.0622   -1.5000    0.0000 C.ar    1  UNL1        0.0081
     12 C           6.9282   -1.0000    0.0000 C.ar    1  UNL1        0.0563
     13 N           6.9282    0.0000    0.0000 N.ar    1  UNL1       -0.2499
     14 C           6.0622    0.5000    0.0000 C.ar    1  UNL1        0.0822
     15 C           6.0622    1.5000    0.0000 C.ar    1  UNL1        0.0191
     16 C           5.1962    2.0000    0.0000 C.ar    1  UNL1        0.0015
     17 C           4.3301    1.5000    0.0000 C.ar    1  UNL1        0.0001
     18 C           4.3301    0.5000    0.0000 C.ar    1  UNL1        0.0028
     19 C           5.1962    0.0000    0.0000 C.ar    1  UNL1        0.0341
     20 C           7.7942   -1.5000    0.0000 C.3     1  UNL1        0.0455
     21 C           7.7942   -2.5000    0.0000 C.3     1  UNL1        0.0066
     22 C           6.9282   -3.0000    0.0000 C.3     1  UNL1        0.0052
     23 C           6.0622   -2.5000    0.0000 C.3     1  UNL1        0.0289
     24 C           0.8660   -1.5000    0.0000 C.ar    1  UNL1        0.0449
     25 C           0.0000   -1.0000    0.0000 C.ar    1  UNL1        0.1756
     26 O          -0.8660   -1.5000    0.0000 O.3     1  UNL1       -0.4683
     27 C          -0.8660   -2.5000    0.0000 C.3     1  UNL1        0.2526
     28 C           0.0000   -0.0000    0.0000 C.ar    1  UNL1        0.2061
     29 O          -0.8660    0.5000    0.0000 O.3     1  UNL1       -0.4654
     30 C          -1.7321   -0.0000    0.0000 C.3     1  UNL1        0.2528
@<TRIPOS>BOND
     1     1     2    1
     2     2     3    1
     3     3     4   ar
     4     4     5   ar
     5     5     6    1
     6     6     7    2
     7     6     8   am
     8     8     9    1
     9     9    10    1
    10    10    11   ar
    11    11    12   ar
    12    12    13   ar
    13    13    14   ar
    14    14    15   ar
    15    15    16   ar
    16    16    17   ar
    17    17    18   ar
    18    18    19   ar
    19    10    19   ar
    20    14    19   ar
    21    12    20    1
    22    20    21    1
    23    21    22    1
    24    22    23    1
    25    11    23    1
    26     5    24   ar
    27    24    25   ar
    28    25    26    1
    29    26    27    1
    30    25    28   ar
    31     3    28   ar
    32    28    29    1
    33    29    30    1
