REMARK  Name = cpd48.pdb
REMARK  13 active torsions:
REMARK  status: ('A' for Active; 'I' for Inactive)
REMARK    1  A    between atoms: C_1  and  C_2
REMARK    2  A    between atoms: C_6  and  N_7
REMARK    3  A    between atoms: N_7  and  C_8
REMARK    4  A    between atoms: C_13  and  C_14
REMARK    5  A    between atoms: N_16  and  C_17
REMARK    6  A    between atoms: C_17  and  C_18
REMARK    7  A    between atoms: N_20  and  C_21
REMARK    8  A    between atoms: C_21  and  C_22
REMARK    9  A    between atoms: C_22  and  C_23
REMARK   10  A    between atoms: C_23  and  C_24
REMARK   11  A    between atoms: C_24  and  N_25
REMARK   12  A    between atoms: N_25  and  C_26
REMARK   13  A    between atoms: C_41  and  C_42
REMARK                            x       y       z     vdW  Elec       q    Type
REMARK                         _______ _______ _______ _____ _____    ______ ____
ROOT
ATOM      1  C   UNL A   1      -5.770  -1.528   1.208  0.00  0.00    +0.230 C 
ATOM      2  O   UNL A   1      -6.507  -0.729   1.780  0.00  0.00    -0.274 OA
ATOM      3  N   UNL A   1      -5.738  -2.877   1.503  0.00  0.00    -0.314 N 
ATOM      4  H   UNL A   1      -5.252  -3.486   0.901  0.00  0.00    +0.000 HD
ENDROOT
BRANCH   1   5
ATOM      5  C   UNL A   1      -4.888  -1.105   0.024  0.00  0.00    +0.088 C 
BRANCH   5   8
ATOM      6  C   UNL A   1      -2.779  -2.369   0.106  0.00  0.00    +0.246 C 
ATOM      7  O   UNL A   1      -2.484  -1.902   1.200  0.00  0.00    -0.270 OA
ATOM      8  N   UNL A   1      -4.000  -2.141  -0.499  0.00  0.00    -0.303 N 
ATOM      9  H   UNL A   1      -4.271  -2.675  -1.280  0.00  0.00    +0.000 HD
BRANCH   6  15
ATOM     10  C   UNL A   1      -0.422  -2.945  -0.545  0.00  0.00    +0.044 A 
ATOM     11  C   UNL A   1       0.461  -3.758  -1.272  0.00  0.00    -0.040 A 
ATOM     12  C   UNL A   1      -0.007  -4.808  -2.067  0.00  0.00    -0.060 A 
ATOM     13  C   UNL A   1      -1.372  -5.067  -2.149  0.00  0.00    -0.061 A 
ATOM     14  C   UNL A   1      -2.273  -4.274  -1.439  0.00  0.00    -0.048 A 
ATOM     15  C   UNL A   1      -1.806  -3.210  -0.647  0.00  0.00    +0.058 A 
BRANCH  10  16
ATOM     16  N   UNL A   1       0.062  -1.871   0.234  0.00  0.00    -0.314 N 
ATOM     17  H   UNL A   1      -0.380  -1.775   1.108  0.00  0.00    +0.000 HD
BRANCH  16  23
ATOM     18  C   UNL A   1       3.133   1.718   1.896  0.00  0.00    -0.039 C 
ATOM     19  C   UNL A   1       2.578   0.843   0.804  0.00  0.00    -0.046 A 
ATOM     20  C   UNL A   1       3.077   1.002  -0.496  0.00  0.00    -0.058 A 
ATOM     21  C   UNL A   1       2.594   0.223  -1.541  0.00  0.00    -0.060 A 
ATOM     22  C   UNL A   1       1.598  -0.721  -1.300  0.00  0.00    -0.040 A 
ATOM     23  C   UNL A   1       1.068  -0.909  -0.016  0.00  0.00    +0.035 A 
ATOM     24  C   UNL A   1       1.592  -0.142   1.058  0.00  0.00    -0.026 A 
ATOM     25  C   UNL A   1       1.056  -0.345   2.457  0.00  0.00    -0.038 C 
ENDBRANCH  16  23
ENDBRANCH  10  16
ENDBRANCH   6  15
ENDBRANCH   5   8
ENDBRANCH   1   5
BRANCH   3  26
ATOM     26  C   UNL A   1      -6.397  -3.422   2.669  0.00  0.00    +0.012 C 
BRANCH  26  27
ATOM     27  C   UNL A   1      -7.926  -3.407   2.614  0.00  0.00    -0.036 C 
BRANCH  27  28
ATOM     28  C   UNL A   1      -8.549  -4.324   1.555  0.00  0.00    -0.036 C 
BRANCH  28  29
ATOM     29  C   UNL A   1      -8.405  -3.798   0.126  0.00  0.00    +0.009 C 
BRANCH  29  30
ATOM     30  N   UNL A   1      -9.146  -4.627  -0.844  0.00  0.00    -0.343 N 
ATOM     31  H   UNL A   1      -8.713  -5.340  -1.367  0.00  0.00    +0.000 HD
BRANCH  30  32
ATOM     32  C   UNL A   1     -10.529  -4.323  -0.969  0.00  0.00    +0.041 A 
ATOM     33  C   UNL A   1     -11.503  -5.204  -0.449  0.00  0.00    -0.005 A 
ATOM     34  C   UNL A   1     -12.844  -4.815  -0.540  0.00  0.00    +0.047 A 
ATOM     35  N   UNL A   1     -13.242  -3.634  -1.066  0.00  0.00    -0.251 NA
ATOM     36  C   UNL A   1     -12.324  -2.808  -1.580  0.00  0.00    +0.074 A 
ATOM     37  C   UNL A   1     -12.770  -1.623  -2.146  0.00  0.00    -0.017 A 
ATOM     38  C   UNL A   1     -11.885  -0.725  -2.736  0.00  0.00    +0.043 A 
ATOM     39 CL   UNL A   1     -12.477   0.731  -3.434  0.00  0.00    -0.083 Cl
ATOM     40  C   UNL A   1     -10.528  -1.006  -2.778  0.00  0.00    -0.043 A 
ATOM     41  C   UNL A   1     -10.065  -2.191  -2.208  0.00  0.00    -0.049 A 
ATOM     42  C   UNL A   1     -10.946  -3.103  -1.576  0.00  0.00    +0.022 A 
ATOM     43  C   UNL A   1     -13.961  -5.669   0.004  0.00  0.00    -0.010 C 
ATOM     44  C   UNL A   1     -13.579  -7.135   0.156  0.00  0.00    -0.047 C 
ATOM     45  C   UNL A   1     -12.258  -7.241   0.900  0.00  0.00    -0.049 C 
ATOM     46  C   UNL A   1     -11.142  -6.562   0.110  0.00  0.00    -0.024 C 
ENDBRANCH  30  32
ENDBRANCH  29  30
ENDBRANCH  28  29
ENDBRANCH  27  28
ENDBRANCH  26  27
ENDBRANCH   3  26
TORSDOF 11
