MODEL 1
REMARK VINA RESULT:    -7.790      0.000      0.000
REMARK INTER + INTRA:         -17.598
REMARK INTER:                 -12.800
REMARK INTRA:                  -4.799
REMARK UNBOUND:                -4.799
REMARK  Name = cpd48.pdb
REMARK  13 active torsions:
REMARK  status: ('A' for Active; 'I' for Inactive)
REMARK    1  A    between atoms: C_1  and  C_2
REMARK    2  A    between atoms: C_6  and  N_7
REMARK    3  A    between atoms: N_7  and  C_8
REMARK    4  A    between atoms: C_13  and  C_14
REMARK    5  A    between atoms: N_16  and  C_17
REMARK    6  A    between atoms: C_17  and  C_18
REMARK    7  A    between atoms: N_20  and  C_21
REMARK    8  A    between atoms: C_21  and  C_22
REMARK    9  A    between atoms: C_22  and  C_23
REMARK   10  A    between atoms: C_23  and  C_24
REMARK   11  A    between atoms: C_24  and  N_25
REMARK   12  A    between atoms: N_25  and  C_26
REMARK   13  A    between atoms: C_41  and  C_42
REMARK                            x       y       z     vdW  Elec       q    Type
REMARK                         _______ _______ _______ _____ _____    ______ ____
ROOT
ATOM      1  C   UNL A   1      30.911 -35.102 -31.458  0.00  0.00    +0.230 C 
ATOM      2  O   UNL A   1      31.060 -35.550 -30.324  0.00  0.00    -0.274 OA
ATOM      3  N   UNL A   1      31.485 -33.922 -31.890  0.00  0.00    -0.314 N 
ATOM      4  H   UNL A   1      31.465 -33.705 -32.850  0.00  0.00    +0.000 HD
ENDROOT
BRANCH   1   5
ATOM      5  C   UNL A   1      30.153 -35.885 -32.540  0.00  0.00    +0.088 C 
BRANCH   5   8
ATOM      6  C   UNL A   1      31.956 -37.354 -33.340  0.00  0.00    +0.246 C 
ATOM      7  O   UNL A   1      32.768 -36.436 -33.348  0.00  0.00    -0.270 OA
ATOM      8  N   UNL A   1      30.677 -37.216 -32.836  0.00  0.00    -0.303 N 
ATOM      9  H   UNL A   1      30.121 -38.012 -32.676  0.00  0.00    +0.000 HD
BRANCH   6  15
ATOM     10  C   UNL A   1      33.352 -39.443 -33.310  0.00  0.00    +0.044 A 
ATOM     11  C   UNL A   1      33.659 -40.693 -33.869  0.00  0.00    -0.040 A 
ATOM     12  C   UNL A   1      32.957 -41.187 -34.972  0.00  0.00    -0.060 A 
ATOM     13  C   UNL A   1      31.928 -40.439 -35.536  0.00  0.00    -0.061 A 
ATOM     14  C   UNL A   1      31.602 -39.193 -35.003  0.00  0.00    -0.048 A 
ATOM     15  C   UNL A   1      32.314 -38.688 -33.900  0.00  0.00    +0.058 A 
BRANCH  10  16
ATOM     16  N   UNL A   1      34.086 -38.944 -32.212  0.00  0.00    -0.314 N 
ATOM     17  H   UNL A   1      34.362 -38.004 -32.304  0.00  0.00    +0.000 HD
BRANCH  16  23
ATOM     18  C   UNL A   1      33.039 -40.495 -27.567  0.00  0.00    -0.039 C 
ATOM     19  C   UNL A   1      33.978 -40.319 -28.731  0.00  0.00    -0.046 A 
ATOM     20  C   UNL A   1      35.298 -40.770 -28.596  0.00  0.00    -0.058 A 
ATOM     21  C   UNL A   1      36.206 -40.626 -29.638  0.00  0.00    -0.060 A 
ATOM     22  C   UNL A   1      35.807 -40.021 -30.828  0.00  0.00    -0.040 A 
ATOM     23  C   UNL A   1      34.498 -39.552 -31.003  0.00  0.00    +0.035 A 
ATOM     24  C   UNL A   1      33.560 -39.738 -29.953  0.00  0.00    -0.026 A 
ATOM     25  C   UNL A   1      32.135 -39.265 -30.127  0.00  0.00    -0.038 C 
ENDBRANCH  16  23
ENDBRANCH  10  16
ENDBRANCH   6  15
ENDBRANCH   5   8
ENDBRANCH   1   5
BRANCH   3  26
ATOM     26  C   UNL A   1      32.114 -32.996 -30.975  0.00  0.00    +0.012 C 
BRANCH  26  27
ATOM     27  C   UNL A   1      33.625 -32.833 -31.156  0.00  0.00    -0.036 C 
BRANCH  27  28
ATOM     28  C   UNL A   1      34.488 -33.553 -30.114  0.00  0.00    -0.036 C 
BRANCH  28  29
ATOM     29  C   UNL A   1      35.560 -34.458 -30.724  0.00  0.00    +0.009 C 
BRANCH  29  30
ATOM     30  N   UNL A   1      35.230 -35.887 -30.566  0.00  0.00    -0.343 N 
ATOM     31  H   UNL A   1      34.675 -36.376 -31.216  0.00  0.00    +0.000 HD
BRANCH  30  32
ATOM     32  C   UNL A   1      35.770 -36.509 -29.407  0.00  0.00    +0.041 A 
ATOM     33  C   UNL A   1      34.958 -36.736 -28.274  0.00  0.00    -0.005 A 
ATOM     34  C   UNL A   1      35.529 -37.416 -27.192  0.00  0.00    +0.047 A 
ATOM     35  N   UNL A   1      36.796 -37.889 -27.196  0.00  0.00    -0.251 NA
ATOM     36  C   UNL A   1      37.575 -37.655 -28.258  0.00  0.00    +0.074 A 
ATOM     37  C   UNL A   1      38.881 -38.121 -28.212  0.00  0.00    -0.017 A 
ATOM     38  C   UNL A   1      39.768 -37.888 -29.259  0.00  0.00    +0.043 A 
ATOM     39 CL   UNL A   1      41.382 -38.475 -29.163  0.00  0.00    -0.083 Cl
ATOM     40  C   UNL A   1      39.362 -37.171 -30.374  0.00  0.00    -0.043 A 
ATOM     41  C   UNL A   1      38.051 -36.702 -30.436  0.00  0.00    -0.049 A 
ATOM     42  C   UNL A   1      37.124 -36.955 -29.394  0.00  0.00    +0.022 A 
ATOM     43  C   UNL A   1      34.744 -37.730 -25.944  0.00  0.00    -0.010 C 
ATOM     44  C   UNL A   1      33.531 -36.830 -25.752  0.00  0.00    -0.047 C 
ATOM     45  C   UNL A   1      32.720 -36.789 -27.037  0.00  0.00    -0.049 C 
ATOM     46  C   UNL A   1      33.549 -36.197 -28.175  0.00  0.00    -0.024 C 
ENDBRANCH  30  32
ENDBRANCH  29  30
ENDBRANCH  28  29
ENDBRANCH  27  28
ENDBRANCH  26  27
ENDBRANCH   3  26
TORSDOF 11
ENDMDL
MODEL 2
REMARK VINA RESULT:    -7.521     17.781     21.220
REMARK INTER + INTRA:         -17.155
REMARK INTER:                 -12.357
REMARK INTRA:                  -4.798
REMARK UNBOUND:                -4.799
REMARK  Name = cpd48.pdb
REMARK  13 active torsions:
REMARK  status: ('A' for Active; 'I' for Inactive)
REMARK    1  A    between atoms: C_1  and  C_2
REMARK    2  A    between atoms: C_6  and  N_7
REMARK    3  A    between atoms: N_7  and  C_8
REMARK    4  A    between atoms: C_13  and  C_14
REMARK    5  A    between atoms: N_16  and  C_17
REMARK    6  A    between atoms: C_17  and  C_18
REMARK    7  A    between atoms: N_20  and  C_21
REMARK    8  A    between atoms: C_21  and  C_22
REMARK    9  A    between atoms: C_22  and  C_23
REMARK   10  A    between atoms: C_23  and  C_24
REMARK   11  A    between atoms: C_24  and  N_25
REMARK   12  A    between atoms: N_25  and  C_26
REMARK   13  A    between atoms: C_41  and  C_42
REMARK                            x       y       z     vdW  Elec       q    Type
REMARK                         _______ _______ _______ _____ _____    ______ ____
ROOT
ATOM      1  C   UNL A   1      39.197 -21.701 -36.867  0.00  0.00    +0.230 C 
ATOM      2  O   UNL A   1      38.321 -20.878 -36.613  0.00  0.00    -0.274 OA
ATOM      3  N   UNL A   1      39.545 -22.728 -36.012  0.00  0.00    -0.314 N 
ATOM      4  H   UNL A   1      40.133 -23.446 -36.343  0.00  0.00    +0.000 HD
ENDROOT
BRANCH   1   5
ATOM      5  C   UNL A   1      39.913 -21.721 -38.226  0.00  0.00    +0.088 C 
BRANCH   5   8
ATOM      6  C   UNL A   1      42.080 -20.691 -37.682  0.00  0.00    +0.246 C 
ATOM      7  O   UNL A   1      42.430 -21.660 -37.018  0.00  0.00    -0.270 OA
ATOM      8  N   UNL A   1      40.914 -20.675 -38.423  0.00  0.00    -0.303 N 
ATOM      9  H   UNL A   1      40.759 -19.961 -39.083  0.00  0.00    +0.000 HD
BRANCH   6  15
ATOM     10  C   UNL A   1      44.205 -19.483 -38.260  0.00  0.00    +0.044 A 
ATOM     11  C   UNL A   1      44.952 -18.295 -38.263  0.00  0.00    -0.040 A 
ATOM     12  C   UNL A   1      44.427 -17.108 -37.745  0.00  0.00    -0.060 A 
ATOM     13  C   UNL A   1      43.141 -17.085 -37.214  0.00  0.00    -0.061 A 
ATOM     14  C   UNL A   1      42.377 -18.252 -37.197  0.00  0.00    -0.048 A 
ATOM     15  C   UNL A   1      42.906 -19.451 -37.707  0.00  0.00    +0.058 A 
BRANCH  10  16
ATOM     16  N   UNL A   1      44.757 -20.683 -38.763  0.00  0.00    -0.314 N 
ATOM     17  H   UNL A   1      45.139 -21.271 -38.073  0.00  0.00    +0.000 HD
BRANCH  16  23
ATOM     18  C   UNL A   1      47.410 -23.001 -42.321  0.00  0.00    -0.039 C 
ATOM     19  C   UNL A   1      46.158 -22.334 -41.817  0.00  0.00    -0.046 A 
ATOM     20  C   UNL A   1      45.069 -22.213 -42.692  0.00  0.00    -0.058 A 
ATOM     21  C   UNL A   1      43.892 -21.601 -42.278  0.00  0.00    -0.060 A 
ATOM     22  C   UNL A   1      43.791 -21.093 -40.984  0.00  0.00    -0.040 A 
ATOM     23  C   UNL A   1      44.857 -21.190 -40.079  0.00  0.00    +0.035 A 
ATOM     24  C   UNL A   1      46.044 -21.853 -40.490  0.00  0.00    -0.026 A 
ATOM     25  C   UNL A   1      47.198 -21.994 -39.524  0.00  0.00    -0.038 C 
ENDBRANCH  16  23
ENDBRANCH  10  16
ENDBRANCH   6  15
ENDBRANCH   5   8
ENDBRANCH   1   5
BRANCH   3  26
ATOM     26  C   UNL A   1      39.073 -22.781 -34.646  0.00  0.00    +0.012 C 
BRANCH  26  27
ATOM     27  C   UNL A   1      40.136 -23.151 -33.609  0.00  0.00    -0.036 C 
BRANCH  27  28
ATOM     28  C   UNL A   1      40.526 -22.024 -32.646  0.00  0.00    -0.036 C 
BRANCH  28  29
ATOM     29  C   UNL A   1      41.968 -21.543 -32.817  0.00  0.00    +0.009 C 
BRANCH  29  30
ATOM     30  N   UNL A   1      42.159 -20.810 -34.083  0.00  0.00    -0.343 N 
ATOM     31  H   UNL A   1      41.851 -21.165 -34.949  0.00  0.00    +0.000 HD
BRANCH  30  32
ATOM     32  C   UNL A   1      42.819 -19.557 -33.965  0.00  0.00    +0.041 A 
ATOM     33  C   UNL A   1      42.123 -18.428 -33.477  0.00  0.00    -0.005 A 
ATOM     34  C   UNL A   1      42.845 -17.240 -33.317  0.00  0.00    +0.047 A 
ATOM     35  N   UNL A   1      44.170 -17.135 -33.572  0.00  0.00    -0.251 NA
ATOM     36  C   UNL A   1      44.826 -18.195 -34.055  0.00  0.00    +0.074 A 
ATOM     37  C   UNL A   1      46.174 -18.042 -34.342  0.00  0.00    -0.017 A 
ATOM     38  C   UNL A   1      46.922 -19.084 -34.883  0.00  0.00    +0.043 A 
ATOM     39 CL   UNL A   1      48.590 -18.852 -35.232  0.00  0.00    -0.083 Cl
ATOM     40  C   UNL A   1      46.325 -20.305 -35.157  0.00  0.00    -0.043 A 
ATOM     41  C   UNL A   1      44.972 -20.475 -34.868  0.00  0.00    -0.049 A 
ATOM     42  C   UNL A   1      44.201 -19.437 -34.290  0.00  0.00    +0.022 A 
ATOM     43  C   UNL A   1      42.206 -15.984 -32.782  0.00  0.00    -0.010 C 
ATOM     44  C   UNL A   1      40.692 -15.965 -32.939  0.00  0.00    -0.047 C 
ATOM     45  C   UNL A   1      40.110 -17.266 -32.411  0.00  0.00    -0.049 C 
ATOM     46  C   UNL A   1      40.634 -18.453 -33.216  0.00  0.00    -0.024 C 
ENDBRANCH  30  32
ENDBRANCH  29  30
ENDBRANCH  28  29
ENDBRANCH  27  28
ENDBRANCH  26  27
ENDBRANCH   3  26
TORSDOF 11
ENDMDL
MODEL 3
REMARK VINA RESULT:    -7.495      1.801      3.422
REMARK INTER + INTRA:         -17.113
REMARK INTER:                 -12.262
REMARK INTRA:                  -4.851
REMARK UNBOUND:                -4.799
REMARK  Name = cpd48.pdb
REMARK  13 active torsions:
REMARK  status: ('A' for Active; 'I' for Inactive)
REMARK    1  A    between atoms: C_1  and  C_2
REMARK    2  A    between atoms: C_6  and  N_7
REMARK    3  A    between atoms: N_7  and  C_8
REMARK    4  A    between atoms: C_13  and  C_14
REMARK    5  A    between atoms: N_16  and  C_17
REMARK    6  A    between atoms: C_17  and  C_18
REMARK    7  A    between atoms: N_20  and  C_21
REMARK    8  A    between atoms: C_21  and  C_22
REMARK    9  A    between atoms: C_22  and  C_23
REMARK   10  A    between atoms: C_23  and  C_24
REMARK   11  A    between atoms: C_24  and  N_25
REMARK   12  A    between atoms: N_25  and  C_26
REMARK   13  A    between atoms: C_41  and  C_42
REMARK                            x       y       z     vdW  Elec       q    Type
REMARK                         _______ _______ _______ _____ _____    ______ ____
ROOT
ATOM      1  C   UNL A   1      31.116 -33.426 -30.876  0.00  0.00    +0.230 C 
ATOM      2  O   UNL A   1      31.318 -33.919 -29.769  0.00  0.00    -0.274 OA
ATOM      3  N   UNL A   1      31.864 -32.387 -31.393  0.00  0.00    -0.314 N 
ATOM      4  H   UNL A   1      31.761 -32.150 -32.344  0.00  0.00    +0.000 HD
ENDROOT
BRANCH   1   5
ATOM      5  C   UNL A   1      30.067 -34.007 -31.837  0.00  0.00    +0.088 C 
BRANCH   5   8
ATOM      6  C   UNL A   1      31.499 -35.720 -32.870  0.00  0.00    +0.246 C 
ATOM      7  O   UNL A   1      32.473 -34.976 -32.872  0.00  0.00    -0.270 OA
ATOM      8  N   UNL A   1      30.303 -35.384 -32.265  0.00  0.00    -0.303 N 
ATOM      9  H   UNL A   1      29.612 -36.070 -32.123  0.00  0.00    +0.000 HD
BRANCH   6  15
ATOM     10  C   UNL A   1      32.433 -38.044 -33.071  0.00  0.00    +0.044 A 
ATOM     11  C   UNL A   1      32.458 -39.277 -33.741  0.00  0.00    -0.040 A 
ATOM     12  C   UNL A   1      31.634 -39.521 -34.843  0.00  0.00    -0.060 A 
ATOM     13  C   UNL A   1      30.764 -38.533 -35.297  0.00  0.00    -0.061 A 
ATOM     14  C   UNL A   1      30.719 -37.298 -34.652  0.00  0.00    -0.048 A 
ATOM     15  C   UNL A   1      31.555 -37.045 -33.550  0.00  0.00    +0.058 A 
BRANCH  10  16
ATOM     16  N   UNL A   1      33.289 -37.801 -31.975  0.00  0.00    -0.314 N 
ATOM     17  H   UNL A   1      33.444 -36.847 -31.787  0.00  0.00    +0.000 HD
BRANCH  16  23
ATOM     18  C   UNL A   1      33.289 -40.676 -27.875  0.00  0.00    -0.039 C 
ATOM     19  C   UNL A   1      33.958 -40.097 -29.094  0.00  0.00    -0.046 A 
ATOM     20  C   UNL A   1      35.291 -40.444 -29.351  0.00  0.00    -0.058 A 
ATOM     21  C   UNL A   1      35.955 -39.932 -30.459  0.00  0.00    -0.060 A 
ATOM     22  C   UNL A   1      35.296 -39.058 -31.321  0.00  0.00    -0.040 A 
ATOM     23  C   UNL A   1      33.964 -38.682 -31.098  0.00  0.00    +0.035 A 
ATOM     24  C   UNL A   1      33.274 -39.238 -29.989  0.00  0.00    -0.026 A 
ATOM     25  C   UNL A   1      31.829 -38.869 -29.743  0.00  0.00    -0.038 C 
ENDBRANCH  16  23
ENDBRANCH  10  16
ENDBRANCH   6  15
ENDBRANCH   5   8
ENDBRANCH   1   5
BRANCH   3  26
ATOM     26  C   UNL A   1      32.795 -31.635 -30.581  0.00  0.00    +0.012 C 
BRANCH  26  27
ATOM     27  C   UNL A   1      34.272 -31.908 -30.871  0.00  0.00    -0.036 C 
BRANCH  27  28
ATOM     28  C   UNL A   1      34.946 -32.914 -29.930  0.00  0.00    -0.036 C 
BRANCH  28  29
ATOM     29  C   UNL A   1      36.050 -33.735 -30.598  0.00  0.00    +0.009 C 
BRANCH  29  30
ATOM     30  N   UNL A   1      35.663 -35.150 -30.760  0.00  0.00    -0.343 N 
ATOM     31  H   UNL A   1      35.122 -35.464 -31.520  0.00  0.00    +0.000 HD
BRANCH  30  32
ATOM     32  C   UNL A   1      36.129 -36.026 -29.742  0.00  0.00    +0.041 A 
ATOM     33  C   UNL A   1      37.458 -36.504 -29.766  0.00  0.00    -0.005 A 
ATOM     34  C   UNL A   1      37.878 -37.305 -28.698  0.00  0.00    +0.047 A 
ATOM     35  N   UNL A   1      37.090 -37.610 -27.642  0.00  0.00    -0.251 NA
ATOM     36  C   UNL A   1      35.824 -37.178 -27.628  0.00  0.00    +0.074 A 
ATOM     37  C   UNL A   1      35.032 -37.541 -26.549  0.00  0.00    -0.017 A 
ATOM     38  C   UNL A   1      33.694 -37.165 -26.475  0.00  0.00    +0.043 A 
ATOM     39 CL   UNL A   1      32.742 -37.641 -25.124  0.00  0.00    -0.083 Cl
ATOM     40  C   UNL A   1      33.119 -36.421 -27.493  0.00  0.00    -0.043 A 
ATOM     41  C   UNL A   1      33.905 -36.044 -28.581  0.00  0.00    -0.049 A 
ATOM     42  C   UNL A   1      35.277 -36.391 -28.661  0.00  0.00    +0.022 A 
ATOM     43  C   UNL A   1      39.282 -37.848 -28.613  0.00  0.00    -0.010 C 
ATOM     44  C   UNL A   1      39.989 -37.904 -29.960  0.00  0.00    -0.047 C 
ATOM     45  C   UNL A   1      39.853 -36.562 -30.661  0.00  0.00    -0.049 C 
ATOM     46  C   UNL A   1      38.385 -36.247 -30.933  0.00  0.00    -0.024 C 
ENDBRANCH  30  32
ENDBRANCH  29  30
ENDBRANCH  28  29
ENDBRANCH  27  28
ENDBRANCH  26  27
ENDBRANCH   3  26
TORSDOF 11
ENDMDL
MODEL 4
REMARK VINA RESULT:    -7.429      1.359      2.283
REMARK INTER + INTRA:         -17.005
REMARK INTER:                 -12.722
REMARK INTRA:                  -4.282
REMARK UNBOUND:                -4.799
REMARK  Name = cpd48.pdb
REMARK  13 active torsions:
REMARK  status: ('A' for Active; 'I' for Inactive)
REMARK    1  A    between atoms: C_1  and  C_2
REMARK    2  A    between atoms: C_6  and  N_7
REMARK    3  A    between atoms: N_7  and  C_8
REMARK    4  A    between atoms: C_13  and  C_14
REMARK    5  A    between atoms: N_16  and  C_17
REMARK    6  A    between atoms: C_17  and  C_18
REMARK    7  A    between atoms: N_20  and  C_21
REMARK    8  A    between atoms: C_21  and  C_22
REMARK    9  A    between atoms: C_22  and  C_23
REMARK   10  A    between atoms: C_23  and  C_24
REMARK   11  A    between atoms: C_24  and  N_25
REMARK   12  A    between atoms: N_25  and  C_26
REMARK   13  A    between atoms: C_41  and  C_42
REMARK                            x       y       z     vdW  Elec       q    Type
REMARK                         _______ _______ _______ _____ _____    ______ ____
ROOT
ATOM      1  C   UNL A   1      30.718 -32.605 -30.760  0.00  0.00    +0.230 C 
ATOM      2  O   UNL A   1      30.317 -31.879 -31.666  0.00  0.00    -0.274 OA
ATOM      3  N   UNL A   1      31.850 -32.336 -30.016  0.00  0.00    -0.314 N 
ATOM      4  H   UNL A   1      32.022 -32.862 -29.202  0.00  0.00    +0.000 HD
ENDROOT
BRANCH   1   5
ATOM      5  C   UNL A   1      29.920 -33.834 -30.300  0.00  0.00    +0.088 C 
BRANCH   5   8
ATOM      6  C   UNL A   1      31.098 -35.435 -31.749  0.00  0.00    +0.246 C 
ATOM      7  O   UNL A   1      32.192 -35.110 -31.302  0.00  0.00    -0.270 OA
ATOM      8  N   UNL A   1      29.908 -34.960 -31.231  0.00  0.00    -0.303 N 
ATOM      9  H   UNL A   1      29.056 -35.379 -31.488  0.00  0.00    +0.000 HD
BRANCH   6  15
ATOM     10  C   UNL A   1      31.840 -37.499 -32.975  0.00  0.00    +0.044 A 
ATOM     11  C   UNL A   1      31.717 -38.349 -34.084  0.00  0.00    -0.040 A 
ATOM     12  C   UNL A   1      30.783 -38.094 -35.093  0.00  0.00    -0.060 A 
ATOM     13  C   UNL A   1      29.951 -36.982 -35.010  0.00  0.00    -0.061 A 
ATOM     14  C   UNL A   1      30.053 -36.119 -33.920  0.00  0.00    -0.048 A 
ATOM     15  C   UNL A   1      30.998 -36.366 -32.909  0.00  0.00    +0.058 A 
BRANCH  10  16
ATOM     16  N   UNL A   1      32.805 -37.752 -31.975  0.00  0.00    -0.314 N 
ATOM     17  H   UNL A   1      33.649 -37.262 -32.096  0.00  0.00    +0.000 HD
BRANCH  16  23
ATOM     18  C   UNL A   1      35.108 -40.943 -28.878  0.00  0.00    -0.039 C 
ATOM     19  C   UNL A   1      33.910 -40.141 -29.311  0.00  0.00    -0.046 A 
ATOM     20  C   UNL A   1      32.735 -40.236 -28.554  0.00  0.00    -0.058 A 
ATOM     21  C   UNL A   1      31.599 -39.520 -28.914  0.00  0.00    -0.060 A 
ATOM     22  C   UNL A   1      31.622 -38.705 -30.044  0.00  0.00    -0.040 A 
ATOM     23  C   UNL A   1      32.775 -38.584 -30.832  0.00  0.00    +0.035 A 
ATOM     24  C   UNL A   1      33.947 -39.283 -30.439  0.00  0.00    -0.026 A 
ATOM     25  C   UNL A   1      35.211 -39.149 -31.257  0.00  0.00    -0.038 C 
ENDBRANCH  16  23
ENDBRANCH  10  16
ENDBRANCH   6  15
ENDBRANCH   5   8
ENDBRANCH   1   5
BRANCH   3  26
ATOM     26  C   UNL A   1      32.788 -31.303 -30.395  0.00  0.00    +0.012 C 
BRANCH  26  27
ATOM     27  C   UNL A   1      34.176 -31.807 -30.799  0.00  0.00    -0.036 C 
BRANCH  27  28
ATOM     28  C   UNL A   1      34.700 -32.995 -29.984  0.00  0.00    -0.036 C 
BRANCH  28  29
ATOM     29  C   UNL A   1      35.914 -33.681 -30.611  0.00  0.00    +0.009 C 
BRANCH  29  30
ATOM     30  N   UNL A   1      35.683 -35.123 -30.827  0.00  0.00    -0.343 N 
ATOM     31  H   UNL A   1      35.199 -35.467 -31.612  0.00  0.00    +0.000 HD
BRANCH  30  32
ATOM     32  C   UNL A   1      36.211 -35.978 -29.822  0.00  0.00    +0.041 A 
ATOM     33  C   UNL A   1      35.401 -36.392 -28.741  0.00  0.00    -0.005 A 
ATOM     34  C   UNL A   1      35.956 -37.291 -27.823  0.00  0.00    +0.047 A 
ATOM     35  N   UNL A   1      37.203 -37.800 -27.940  0.00  0.00    -0.251 NA
ATOM     36  C   UNL A   1      37.980 -37.392 -28.950  0.00  0.00    +0.074 A 
ATOM     37  C   UNL A   1      39.267 -37.905 -29.019  0.00  0.00    -0.017 A 
ATOM     38  C   UNL A   1      40.153 -37.505 -30.016  0.00  0.00    +0.043 A 
ATOM     39 CL   UNL A   1      41.743 -38.158 -30.064  0.00  0.00    -0.083 Cl
ATOM     40  C   UNL A   1      39.764 -36.569 -30.962  0.00  0.00    -0.043 A 
ATOM     41  C   UNL A   1      38.471 -36.050 -30.908  0.00  0.00    -0.049 A 
ATOM     42  C   UNL A   1      37.546 -36.467 -29.920  0.00  0.00    +0.022 A 
ATOM     43  C   UNL A   1      35.171 -37.815 -26.646  0.00  0.00    -0.010 C 
ATOM     44  C   UNL A   1      33.997 -36.926 -26.261  0.00  0.00    -0.047 C 
ATOM     45  C   UNL A   1      33.176 -36.604 -27.499  0.00  0.00    -0.049 C 
ATOM     46  C   UNL A   1      34.015 -35.832 -28.514  0.00  0.00    -0.024 C 
ENDBRANCH  30  32
ENDBRANCH  29  30
ENDBRANCH  28  29
ENDBRANCH  27  28
ENDBRANCH  26  27
ENDBRANCH   3  26
TORSDOF 11
ENDMDL
MODEL 5
REMARK VINA RESULT:    -7.383     19.628     23.039
REMARK INTER + INTRA:         -16.929
REMARK INTER:                 -12.732
REMARK INTRA:                  -4.197
REMARK UNBOUND:                -4.799
REMARK  Name = cpd48.pdb
REMARK  13 active torsions:
REMARK  status: ('A' for Active; 'I' for Inactive)
REMARK    1  A    between atoms: C_1  and  C_2
REMARK    2  A    between atoms: C_6  and  N_7
REMARK    3  A    between atoms: N_7  and  C_8
REMARK    4  A    between atoms: C_13  and  C_14
REMARK    5  A    between atoms: N_16  and  C_17
REMARK    6  A    between atoms: C_17  and  C_18
REMARK    7  A    between atoms: N_20  and  C_21
REMARK    8  A    between atoms: C_21  and  C_22
REMARK    9  A    between atoms: C_22  and  C_23
REMARK   10  A    between atoms: C_23  and  C_24
REMARK   11  A    between atoms: C_24  and  N_25
REMARK   12  A    between atoms: N_25  and  C_26
REMARK   13  A    between atoms: C_41  and  C_42
REMARK                            x       y       z     vdW  Elec       q    Type
REMARK                         _______ _______ _______ _____ _____    ______ ____
ROOT
ATOM      1  C   UNL A   1      41.449 -22.050 -38.826  0.00  0.00    +0.230 C 
ATOM      2  O   UNL A   1      40.944 -23.131 -39.117  0.00  0.00    -0.274 OA
ATOM      3  N   UNL A   1      41.397 -21.504 -37.558  0.00  0.00    -0.314 N 
ATOM      4  H   UNL A   1      41.958 -20.722 -37.351  0.00  0.00    +0.000 HD
ENDROOT
BRANCH   1   5
ATOM      5  C   UNL A   1      42.286 -21.253 -39.838  0.00  0.00    +0.088 C 
BRANCH   5   8
ATOM      6  C   UNL A   1      44.516 -21.016 -40.849  0.00  0.00    +0.246 C 
ATOM      7  O   UNL A   1      44.198 -19.983 -41.427  0.00  0.00    -0.270 OA
ATOM      8  N   UNL A   1      43.689 -21.648 -39.941  0.00  0.00    -0.303 N 
ATOM      9  H   UNL A   1      44.044 -22.363 -39.364  0.00  0.00    +0.000 HD
BRANCH   6  15
ATOM     10  C   UNL A   1      46.942 -21.363 -40.297  0.00  0.00    +0.044 A 
ATOM     11  C   UNL A   1      48.164 -21.990 -40.586  0.00  0.00    -0.040 A 
ATOM     12  C   UNL A   1      48.284 -22.893 -41.646  0.00  0.00    -0.060 A 
ATOM     13  C   UNL A   1      47.179 -23.189 -42.439  0.00  0.00    -0.061 A 
ATOM     14  C   UNL A   1      45.953 -22.580 -42.177  0.00  0.00    -0.048 A 
ATOM     15  C   UNL A   1      45.832 -21.662 -41.118  0.00  0.00    +0.058 A 
BRANCH  10  16
ATOM     16  N   UNL A   1      46.841 -20.433 -39.240  0.00  0.00    -0.314 N 
ATOM     17  H   UNL A   1      46.663 -20.839 -38.361  0.00  0.00    +0.000 HD
BRANCH  16  23
ATOM     18  C   UNL A   1      47.282 -16.164 -36.660  0.00  0.00    -0.039 C 
ATOM     19  C   UNL A   1      47.174 -16.934 -37.949  0.00  0.00    -0.046 A 
ATOM     20  C   UNL A   1      47.175 -16.219 -39.154  0.00  0.00    -0.058 A 
ATOM     21  C   UNL A   1      47.072 -16.882 -40.372  0.00  0.00    -0.060 A 
ATOM     22  C   UNL A   1      46.959 -18.270 -40.399  0.00  0.00    -0.040 A 
ATOM     23  C   UNL A   1      46.949 -19.023 -39.216  0.00  0.00    +0.035 A 
ATOM     24  C   UNL A   1      47.096 -18.348 -37.976  0.00  0.00    -0.026 A 
ATOM     25  C   UNL A   1      47.116 -19.140 -36.688  0.00  0.00    -0.038 C 
ENDBRANCH  16  23
ENDBRANCH  10  16
ENDBRANCH   6  15
ENDBRANCH   5   8
ENDBRANCH   1   5
BRANCH   3  26
ATOM     26  C   UNL A   1      40.544 -22.047 -36.525  0.00  0.00    +0.012 C 
BRANCH  26  27
ATOM     27  C   UNL A   1      40.953 -21.690 -35.094  0.00  0.00    -0.036 C 
BRANCH  27  28
ATOM     28  C   UNL A   1      41.444 -20.252 -34.897  0.00  0.00    -0.036 C 
BRANCH  28  29
ATOM     29  C   UNL A   1      42.774 -20.155 -34.148  0.00  0.00    +0.009 C 
BRANCH  29  30
ATOM     30  N   UNL A   1      43.861 -19.663 -35.016  0.00  0.00    -0.343 N 
ATOM     31  H   UNL A   1      44.516 -20.268 -35.434  0.00  0.00    +0.000 HD
BRANCH  30  32
ATOM     32  C   UNL A   1      43.894 -18.255 -35.208  0.00  0.00    +0.041 A 
ATOM     33  C   UNL A   1      43.637 -17.702 -36.482  0.00  0.00    -0.005 A 
ATOM     34  C   UNL A   1      43.614 -16.307 -36.591  0.00  0.00    +0.047 A 
ATOM     35  N   UNL A   1      43.792 -15.476 -35.538  0.00  0.00    -0.251 NA
ATOM     36  C   UNL A   1      44.058 -15.996 -34.335  0.00  0.00    +0.074 A 
ATOM     37  C   UNL A   1      44.272 -15.115 -33.286  0.00  0.00    -0.017 A 
ATOM     38  C   UNL A   1      44.592 -15.572 -32.011  0.00  0.00    +0.043 A 
ATOM     39 CL   UNL A   1      44.858 -14.447 -30.737  0.00  0.00    -0.083 Cl
ATOM     40  C   UNL A   1      44.713 -16.931 -31.765  0.00  0.00    -0.043 A 
ATOM     41  C   UNL A   1      44.495 -17.829 -32.809  0.00  0.00    -0.049 A 
ATOM     42  C   UNL A   1      44.139 -17.385 -34.106  0.00  0.00    +0.022 A 
ATOM     43  C   UNL A   1      43.326 -15.614 -37.898  0.00  0.00    -0.010 C 
ATOM     44  C   UNL A   1      43.588 -16.490 -39.115  0.00  0.00    -0.047 C 
ATOM     45  C   UNL A   1      42.905 -17.835 -38.928  0.00  0.00    -0.049 C 
ATOM     46  C   UNL A   1      43.477 -18.563 -37.715  0.00  0.00    -0.024 C 
ENDBRANCH  30  32
ENDBRANCH  29  30
ENDBRANCH  28  29
ENDBRANCH  27  28
ENDBRANCH  26  27
ENDBRANCH   3  26
TORSDOF 11
ENDMDL
MODEL 6
REMARK VINA RESULT:    -7.169     19.237     22.967
REMARK INTER + INTRA:         -16.578
REMARK INTER:                 -12.779
REMARK INTRA:                  -3.798
REMARK UNBOUND:                -4.799
REMARK  Name = cpd48.pdb
REMARK  13 active torsions:
REMARK  status: ('A' for Active; 'I' for Inactive)
REMARK    1  A    between atoms: C_1  and  C_2
REMARK    2  A    between atoms: C_6  and  N_7
REMARK    3  A    between atoms: N_7  and  C_8
REMARK    4  A    between atoms: C_13  and  C_14
REMARK    5  A    between atoms: N_16  and  C_17
REMARK    6  A    between atoms: C_17  and  C_18
REMARK    7  A    between atoms: N_20  and  C_21
REMARK    8  A    between atoms: C_21  and  C_22
REMARK    9  A    between atoms: C_22  and  C_23
REMARK   10  A    between atoms: C_23  and  C_24
REMARK   11  A    between atoms: C_24  and  N_25
REMARK   12  A    between atoms: N_25  and  C_26
REMARK   13  A    between atoms: C_41  and  C_42
REMARK                            x       y       z     vdW  Elec       q    Type
REMARK                         _______ _______ _______ _____ _____    ______ ____
ROOT
ATOM      1  C   UNL A   1      46.716 -17.594 -36.026  0.00  0.00    +0.230 C 
ATOM      2  O   UNL A   1      47.333 -16.568 -36.298  0.00  0.00    -0.274 OA
ATOM      3  N   UNL A   1      45.378 -17.606 -35.681  0.00  0.00    -0.314 N 
ATOM      4  H   UNL A   1      44.904 -18.468 -35.638  0.00  0.00    +0.000 HD
ENDROOT
BRANCH   1   5
ATOM      5  C   UNL A   1      47.362 -18.981 -36.155  0.00  0.00    +0.088 C 
BRANCH   5   8
ATOM      6  C   UNL A   1      46.476 -19.851 -38.279  0.00  0.00    +0.246 C 
ATOM      7  O   UNL A   1      45.319 -19.620 -37.948  0.00  0.00    -0.270 OA
ATOM      8  N   UNL A   1      47.563 -19.456 -37.522  0.00  0.00    -0.303 N 
ATOM      9  H   UNL A   1      48.469 -19.493 -37.904  0.00  0.00    +0.000 HD
BRANCH   6  15
ATOM     10  C   UNL A   1      47.025 -19.897 -40.730  0.00  0.00    +0.044 A 
ATOM     11  C   UNL A   1      47.296 -20.640 -41.889  0.00  0.00    -0.040 A 
ATOM     12  C   UNL A   1      47.327 -22.037 -41.864  0.00  0.00    -0.060 A 
ATOM     13  C   UNL A   1      47.088 -22.720 -40.675  0.00  0.00    -0.061 A 
ATOM     14  C   UNL A   1      46.814 -22.007 -39.508  0.00  0.00    -0.048 A 
ATOM     15  C   UNL A   1      46.771 -20.602 -39.532  0.00  0.00    +0.058 A 
BRANCH  10  16
ATOM     16  N   UNL A   1      46.972 -18.486 -40.774  0.00  0.00    -0.314 N 
ATOM     17  H   UNL A   1      47.853 -18.048 -40.748  0.00  0.00    +0.000 HD
BRANCH  16  23
ATOM     18  C   UNL A   1      44.918 -14.056 -39.663  0.00  0.00    -0.039 C 
ATOM     19  C   UNL A   1      44.881 -15.415 -40.310  0.00  0.00    -0.046 A 
ATOM     20  C   UNL A   1      43.720 -15.793 -40.999  0.00  0.00    -0.058 A 
ATOM     21  C   UNL A   1      43.632 -17.038 -41.610  0.00  0.00    -0.060 A 
ATOM     22  C   UNL A   1      44.703 -17.927 -41.532  0.00  0.00    -0.040 A 
ATOM     23  C   UNL A   1      45.880 -17.590 -40.849  0.00  0.00    +0.035 A 
ATOM     24  C   UNL A   1      45.984 -16.302 -40.262  0.00  0.00    -0.026 A 
ATOM     25  C   UNL A   1      47.254 -15.905 -39.543  0.00  0.00    -0.038 C 
ENDBRANCH  16  23
ENDBRANCH  10  16
ENDBRANCH   6  15
ENDBRANCH   5   8
ENDBRANCH   1   5
BRANCH   3  26
ATOM     26  C   UNL A   1      44.653 -16.392 -35.382  0.00  0.00    +0.012 C 
BRANCH  26  27
ATOM     27  C   UNL A   1      43.327 -16.230 -36.127  0.00  0.00    -0.036 C 
BRANCH  27  28
ATOM     28  C   UNL A   1      43.144 -17.152 -37.339  0.00  0.00    -0.036 C 
BRANCH  28  29
ATOM     29  C   UNL A   1      42.060 -18.213 -37.144  0.00  0.00    +0.009 C 
BRANCH  29  30
ATOM     30  N   UNL A   1      42.634 -19.556 -36.938  0.00  0.00    -0.343 N 
ATOM     31  H   UNL A   1      43.522 -19.694 -36.535  0.00  0.00    +0.000 HD
BRANCH  30  32
ATOM     32  C   UNL A   1      41.815 -20.638 -37.361  0.00  0.00    +0.041 A 
ATOM     33  C   UNL A   1      41.907 -21.128 -38.683  0.00  0.00    -0.005 A 
ATOM     34  C   UNL A   1      41.126 -22.239 -39.019  0.00  0.00    +0.047 A 
ATOM     35  N   UNL A   1      40.323 -22.878 -38.137  0.00  0.00    -0.251 NA
ATOM     36  C   UNL A   1      40.216 -22.402 -36.891  0.00  0.00    +0.074 A 
ATOM     37  C   UNL A   1      39.354 -23.058 -36.025  0.00  0.00    -0.017 A 
ATOM     38  C   UNL A   1      39.156 -22.607 -34.723  0.00  0.00    +0.043 A 
ATOM     39 CL   UNL A   1      38.074 -23.442 -33.679  0.00  0.00    -0.083 Cl
ATOM     40  C   UNL A   1      39.816 -21.476 -34.267  0.00  0.00    -0.043 A 
ATOM     41  C   UNL A   1      40.689 -20.810 -35.125  0.00  0.00    -0.049 A 
ATOM     42  C   UNL A   1      40.927 -21.271 -36.444  0.00  0.00    +0.022 A 
ATOM     43  C   UNL A   1      41.165 -22.856 -40.394  0.00  0.00    -0.010 C 
ATOM     44  C   UNL A   1      41.675 -21.904 -41.467  0.00  0.00    -0.047 C 
ATOM     45  C   UNL A   1      42.974 -21.264 -41.003  0.00  0.00    -0.049 C 
ATOM     46  C   UNL A   1      42.744 -20.440 -39.739  0.00  0.00    -0.024 C 
ENDBRANCH  30  32
ENDBRANCH  29  30
ENDBRANCH  28  29
ENDBRANCH  27  28
ENDBRANCH  26  27
ENDBRANCH   3  26
TORSDOF 11
ENDMDL
MODEL 7
REMARK VINA RESULT:    -7.038     18.930     22.423
REMARK INTER + INTRA:         -16.362
REMARK INTER:                 -11.329
REMARK INTRA:                  -5.033
REMARK UNBOUND:                -4.799
REMARK  Name = cpd48.pdb
REMARK  13 active torsions:
REMARK  status: ('A' for Active; 'I' for Inactive)
REMARK    1  A    between atoms: C_1  and  C_2
REMARK    2  A    between atoms: C_6  and  N_7
REMARK    3  A    between atoms: N_7  and  C_8
REMARK    4  A    between atoms: C_13  and  C_14
REMARK    5  A    between atoms: N_16  and  C_17
REMARK    6  A    between atoms: C_17  and  C_18
REMARK    7  A    between atoms: N_20  and  C_21
REMARK    8  A    between atoms: C_21  and  C_22
REMARK    9  A    between atoms: C_22  and  C_23
REMARK   10  A    between atoms: C_23  and  C_24
REMARK   11  A    between atoms: C_24  and  N_25
REMARK   12  A    between atoms: N_25  and  C_26
REMARK   13  A    between atoms: C_41  and  C_42
REMARK                            x       y       z     vdW  Elec       q    Type
REMARK                         _______ _______ _______ _____ _____    ______ ____
ROOT
ATOM      1  C   UNL A   1      40.304 -22.294 -35.726  0.00  0.00    +0.230 C 
ATOM      2  O   UNL A   1      39.095 -22.337 -35.509  0.00  0.00    -0.274 OA
ATOM      3  N   UNL A   1      41.245 -22.079 -34.738  0.00  0.00    -0.314 N 
ATOM      4  H   UNL A   1      42.197 -22.221 -34.947  0.00  0.00    +0.000 HD
ENDROOT
BRANCH   1   5
ATOM      5  C   UNL A   1      40.883 -22.590 -37.117  0.00  0.00    +0.088 C 
BRANCH   5   8
ATOM      6  C   UNL A   1      42.145 -20.612 -37.859  0.00  0.00    +0.246 C 
ATOM      7  O   UNL A   1      43.125 -20.927 -37.194  0.00  0.00    -0.270 OA
ATOM      8  N   UNL A   1      41.039 -21.429 -37.992  0.00  0.00    -0.303 N 
ATOM      9  H   UNL A   1      40.357 -21.230 -38.673  0.00  0.00    +0.000 HD
BRANCH   6  15
ATOM     10  C   UNL A   1      43.205 -18.856 -39.309  0.00  0.00    +0.044 A 
ATOM     11  C   UNL A   1      43.117 -17.610 -39.949  0.00  0.00    -0.040 A 
ATOM     12  C   UNL A   1      41.962 -16.829 -39.860  0.00  0.00    -0.060 A 
ATOM     13  C   UNL A   1      40.868 -17.280 -39.128  0.00  0.00    -0.061 A 
ATOM     14  C   UNL A   1      40.928 -18.513 -38.479  0.00  0.00    -0.048 A 
ATOM     15  C   UNL A   1      42.093 -19.297 -38.558  0.00  0.00    +0.058 A 
BRANCH  10  16
ATOM     16  N   UNL A   1      44.388 -19.624 -39.385  0.00  0.00    -0.314 N 
ATOM     17  H   UNL A   1      44.991 -19.514 -38.615  0.00  0.00    +0.000 HD
BRANCH  16  23
ATOM     18  C   UNL A   1      47.688 -23.091 -40.858  0.00  0.00    -0.039 C 
ATOM     19  C   UNL A   1      46.475 -22.228 -41.084  0.00  0.00    -0.046 A 
ATOM     20  C   UNL A   1      45.808 -22.324 -42.313  0.00  0.00    -0.058 A 
ATOM     21  C   UNL A   1      44.687 -21.545 -42.574  0.00  0.00    -0.060 A 
ATOM     22  C   UNL A   1      44.221 -20.654 -41.609  0.00  0.00    -0.040 A 
ATOM     23  C   UNL A   1      44.861 -20.523 -40.369  0.00  0.00    +0.035 A 
ATOM     24  C   UNL A   1      45.981 -21.349 -40.088  0.00  0.00    -0.026 A 
ATOM     25  C   UNL A   1      46.672 -21.247 -38.747  0.00  0.00    -0.038 C 
ENDBRANCH  16  23
ENDBRANCH  10  16
ENDBRANCH   6  15
ENDBRANCH   5   8
ENDBRANCH   1   5
BRANCH   3  26
ATOM     26  C   UNL A   1      40.876 -21.652 -33.407  0.00  0.00    +0.012 C 
BRANCH  26  27
ATOM     27  C   UNL A   1      41.837 -20.655 -32.758  0.00  0.00    -0.036 C 
BRANCH  27  28
ATOM     28  C   UNL A   1      41.381 -19.191 -32.797  0.00  0.00    -0.036 C 
BRANCH  28  29
ATOM     29  C   UNL A   1      42.383 -18.254 -33.474  0.00  0.00    +0.009 C 
BRANCH  29  30
ATOM     30  N   UNL A   1      42.681 -18.674 -34.857  0.00  0.00    -0.343 N 
ATOM     31  H   UNL A   1      42.181 -19.390 -35.310  0.00  0.00    +0.000 HD
BRANCH  30  32
ATOM     32  C   UNL A   1      43.742 -17.969 -35.488  0.00  0.00    +0.041 A 
ATOM     33  C   UNL A   1      45.043 -18.519 -35.523  0.00  0.00    -0.005 A 
ATOM     34  C   UNL A   1      46.028 -17.811 -36.220  0.00  0.00    +0.047 A 
ATOM     35  N   UNL A   1      45.787 -16.656 -36.882  0.00  0.00    -0.251 NA
ATOM     36  C   UNL A   1      44.562 -16.121 -36.831  0.00  0.00    +0.074 A 
ATOM     37  C   UNL A   1      44.359 -14.917 -37.489  0.00  0.00    -0.017 A 
ATOM     38  C   UNL A   1      43.125 -14.274 -37.455  0.00  0.00    +0.043 A 
ATOM     39 CL   UNL A   1      42.914 -12.778 -38.277  0.00  0.00    -0.083 Cl
ATOM     40  C   UNL A   1      42.067 -14.825 -36.748  0.00  0.00    -0.043 A 
ATOM     41  C   UNL A   1      42.256 -16.038 -36.087  0.00  0.00    -0.049 A 
ATOM     42  C   UNL A   1      43.495 -16.724 -36.135  0.00  0.00    +0.022 A 
ATOM     43  C   UNL A   1      47.442 -18.320 -36.339  0.00  0.00    -0.010 C 
ATOM     44  C   UNL A   1      47.816 -19.320 -35.254  0.00  0.00    -0.047 C 
ATOM     45  C   UNL A   1      46.744 -20.394 -35.161  0.00  0.00    -0.049 C 
ATOM     46  C   UNL A   1      45.403 -19.779 -34.768  0.00  0.00    -0.024 C 
ENDBRANCH  30  32
ENDBRANCH  29  30
ENDBRANCH  28  29
ENDBRANCH  27  28
ENDBRANCH  26  27
ENDBRANCH   3  26
TORSDOF 11
ENDMDL
MODEL 8
REMARK VINA RESULT:    -6.841     17.567     21.324
REMARK INTER + INTRA:         -16.039
REMARK INTER:                 -11.413
REMARK INTRA:                  -4.626
REMARK UNBOUND:                -4.799
REMARK  Name = cpd48.pdb
REMARK  13 active torsions:
REMARK  status: ('A' for Active; 'I' for Inactive)
REMARK    1  A    between atoms: C_1  and  C_2
REMARK    2  A    between atoms: C_6  and  N_7
REMARK    3  A    between atoms: N_7  and  C_8
REMARK    4  A    between atoms: C_13  and  C_14
REMARK    5  A    between atoms: N_16  and  C_17
REMARK    6  A    between atoms: C_17  and  C_18
REMARK    7  A    between atoms: N_20  and  C_21
REMARK    8  A    between atoms: C_21  and  C_22
REMARK    9  A    between atoms: C_22  and  C_23
REMARK   10  A    between atoms: C_23  and  C_24
REMARK   11  A    between atoms: C_24  and  N_25
REMARK   12  A    between atoms: N_25  and  C_26
REMARK   13  A    between atoms: C_41  and  C_42
REMARK                            x       y       z     vdW  Elec       q    Type
REMARK                         _______ _______ _______ _____ _____    ______ ____
ROOT
ATOM      1  C   UNL A   1      46.007 -18.765 -34.641  0.00  0.00    +0.230 C 
ATOM      2  O   UNL A   1      45.313 -19.310 -33.787  0.00  0.00    -0.274 OA
ATOM      3  N   UNL A   1      45.751 -17.500 -35.135  0.00  0.00    -0.314 N 
ATOM      4  H   UNL A   1      46.433 -17.057 -35.690  0.00  0.00    +0.000 HD
ENDROOT
BRANCH   1   5
ATOM      5  C   UNL A   1      47.301 -19.410 -35.160  0.00  0.00    +0.088 C 
BRANCH   5   8
ATOM      6  C   UNL A   1      46.959 -19.630 -37.587  0.00  0.00    +0.246 C 
ATOM      7  O   UNL A   1      47.122 -18.429 -37.769  0.00  0.00    -0.270 OA
ATOM      8  N   UNL A   1      47.154 -20.233 -36.359  0.00  0.00    -0.303 N 
ATOM      9  H   UNL A   1      47.195 -21.214 -36.292  0.00  0.00    +0.000 HD
BRANCH   6  15
ATOM     10  C   UNL A   1      45.138 -20.695 -38.951  0.00  0.00    +0.044 A 
ATOM     11  C   UNL A   1      44.763 -21.536 -40.009  0.00  0.00    -0.040 A 
ATOM     12  C   UNL A   1      45.720 -22.171 -40.806  0.00  0.00    -0.060 A 
ATOM     13  C   UNL A   1      47.075 -21.974 -40.560  0.00  0.00    -0.061 A 
ATOM     14  C   UNL A   1      47.477 -21.144 -39.513  0.00  0.00    -0.048 A 
ATOM     15  C   UNL A   1      46.517 -20.513 -38.703  0.00  0.00    +0.058 A 
BRANCH  10  16
ATOM     16  N   UNL A   1      44.161 -20.080 -38.137  0.00  0.00    -0.314 N 
ATOM     17  H   UNL A   1      44.500 -19.334 -37.592  0.00  0.00    +0.000 HD
BRANCH  16  23
ATOM     18  C   UNL A   1      39.378 -18.910 -39.046  0.00  0.00    -0.039 C 
ATOM     19  C   UNL A   1      40.440 -19.773 -38.419  0.00  0.00    -0.046 A 
ATOM     20  C   UNL A   1      40.036 -20.863 -37.637  0.00  0.00    -0.058 A 
ATOM     21  C   UNL A   1      40.977 -21.688 -37.031  0.00  0.00    -0.060 A 
ATOM     22  C   UNL A   1      42.336 -21.427 -37.193  0.00  0.00    -0.040 A 
ATOM     23  C   UNL A   1      42.782 -20.344 -37.963  0.00  0.00    +0.035 A 
ATOM     24  C   UNL A   1      41.821 -19.528 -38.616  0.00  0.00    -0.026 A 
ATOM     25  C   UNL A   1      42.278 -18.370 -39.474  0.00  0.00    -0.038 C 
ENDBRANCH  16  23
ENDBRANCH  10  16
ENDBRANCH   6  15
ENDBRANCH   5   8
ENDBRANCH   1   5
BRANCH   3  26
ATOM     26  C   UNL A   1      44.512 -16.808 -34.860  0.00  0.00    +0.012 C 
BRANCH  26  27
ATOM     27  C   UNL A   1      43.555 -16.697 -36.050  0.00  0.00    -0.036 C 
BRANCH  27  28
ATOM     28  C   UNL A   1      42.135 -17.215 -35.794  0.00  0.00    -0.036 C 
BRANCH  28  29
ATOM     29  C   UNL A   1      42.084 -18.438 -34.877  0.00  0.00    +0.009 C 
BRANCH  29  30
ATOM     30  N   UNL A   1      40.946 -18.376 -33.939  0.00  0.00    -0.343 N 
ATOM     31  H   UNL A   1      40.930 -17.761 -33.171  0.00  0.00    +0.000 HD
BRANCH  30  32
ATOM     32  C   UNL A   1      39.877 -19.268 -34.224  0.00  0.00    +0.041 A 
ATOM     33  C   UNL A   1      39.901 -20.592 -33.733  0.00  0.00    -0.005 A 
ATOM     34  C   UNL A   1      38.786 -21.398 -33.987  0.00  0.00    +0.047 A 
ATOM     35  N   UNL A   1      37.687 -20.963 -34.644  0.00  0.00    -0.251 NA
ATOM     36  C   UNL A   1      37.670 -19.717 -35.130  0.00  0.00    +0.074 A 
ATOM     37  C   UNL A   1      36.543 -19.315 -35.832  0.00  0.00    -0.017 A 
ATOM     38  C   UNL A   1      36.460 -18.049 -36.403  0.00  0.00    +0.043 A 
ATOM     39 CL   UNL A   1      35.049 -17.590 -37.272  0.00  0.00    -0.083 Cl
ATOM     40  C   UNL A   1      37.517 -17.159 -36.288  0.00  0.00    -0.043 A 
ATOM     41  C   UNL A   1      38.654 -17.547 -35.581  0.00  0.00    -0.049 A 
ATOM     42  C   UNL A   1      38.745 -18.821 -34.967  0.00  0.00    +0.022 A 
ATOM     43  C   UNL A   1      38.699 -22.818 -33.488  0.00  0.00    -0.010 C 
ATOM     44  C   UNL A   1      40.057 -23.433 -33.180  0.00  0.00    -0.047 C 
ATOM     45  C   UNL A   1      40.857 -22.484 -32.303  0.00  0.00    -0.049 C 
ATOM     46  C   UNL A   1      41.111 -21.167 -33.032  0.00  0.00    -0.024 C 
ENDBRANCH  30  32
ENDBRANCH  29  30
ENDBRANCH  28  29
ENDBRANCH  27  28
ENDBRANCH  26  27
ENDBRANCH   3  26
TORSDOF 11
ENDMDL
MODEL 9
REMARK VINA RESULT:    -6.826      2.842      5.105
REMARK INTER + INTRA:         -16.015
REMARK INTER:                 -10.638
REMARK INTRA:                  -5.377
REMARK UNBOUND:                -4.799
REMARK  Name = cpd48.pdb
REMARK  13 active torsions:
REMARK  status: ('A' for Active; 'I' for Inactive)
REMARK    1  A    between atoms: C_1  and  C_2
REMARK    2  A    between atoms: C_6  and  N_7
REMARK    3  A    between atoms: N_7  and  C_8
REMARK    4  A    between atoms: C_13  and  C_14
REMARK    5  A    between atoms: N_16  and  C_17
REMARK    6  A    between atoms: C_17  and  C_18
REMARK    7  A    between atoms: N_20  and  C_21
REMARK    8  A    between atoms: C_21  and  C_22
REMARK    9  A    between atoms: C_22  and  C_23
REMARK   10  A    between atoms: C_23  and  C_24
REMARK   11  A    between atoms: C_24  and  N_25
REMARK   12  A    between atoms: N_25  and  C_26
REMARK   13  A    between atoms: C_41  and  C_42
REMARK                            x       y       z     vdW  Elec       q    Type
REMARK                         _______ _______ _______ _____ _____    ______ ____
ROOT
ATOM      1  C   UNL A   1      29.215 -37.928 -27.417  0.00  0.00    +0.230 C 
ATOM      2  O   UNL A   1      28.327 -38.176 -26.604  0.00  0.00    -0.274 OA
ATOM      3  N   UNL A   1      30.506 -37.598 -27.054  0.00  0.00    -0.314 N 
ATOM      4  H   UNL A   1      31.205 -37.574 -27.746  0.00  0.00    +0.000 HD
ENDROOT
BRANCH   1   5
ATOM      5  C   UNL A   1      28.987 -38.074 -28.928  0.00  0.00    +0.088 C 
BRANCH   5   8
ATOM      6  C   UNL A   1      30.219 -37.713 -31.027  0.00  0.00    +0.246 C 
ATOM      7  O   UNL A   1      29.681 -38.674 -31.566  0.00  0.00    -0.270 OA
ATOM      8  N   UNL A   1      29.852 -37.256 -29.776  0.00  0.00    -0.303 N 
ATOM      9  H   UNL A   1      30.172 -36.382 -29.456  0.00  0.00    +0.000 HD
BRANCH   6  15
ATOM     10  C   UNL A   1      32.504 -37.685 -32.069  0.00  0.00    +0.044 A 
ATOM     11  C   UNL A   1      33.529 -36.965 -32.703  0.00  0.00    -0.040 A 
ATOM     12  C   UNL A   1      33.395 -35.601 -32.978  0.00  0.00    -0.060 A 
ATOM     13  C   UNL A   1      32.228 -34.929 -32.625  0.00  0.00    -0.061 A 
ATOM     14  C   UNL A   1      31.194 -35.618 -31.992  0.00  0.00    -0.048 A 
ATOM     15  C   UNL A   1      31.331 -36.988 -31.704  0.00  0.00    +0.058 A 
BRANCH  10  16
ATOM     16  N   UNL A   1      32.663 -39.056 -31.774  0.00  0.00    -0.314 N 
ATOM     17  H   UNL A   1      31.877 -39.609 -31.988  0.00  0.00    +0.000 HD
BRANCH  16  23
ATOM     18  C   UNL A   1      34.761 -41.458 -27.913  0.00  0.00    -0.039 C 
ATOM     19  C   UNL A   1      34.769 -40.963 -29.334  0.00  0.00    -0.046 A 
ATOM     20  C   UNL A   1      35.895 -41.227 -30.125  0.00  0.00    -0.058 A 
ATOM     21  C   UNL A   1      35.956 -40.787 -31.443  0.00  0.00    -0.060 A 
ATOM     22  C   UNL A   1      34.891 -40.069 -31.984  0.00  0.00    -0.040 A 
ATOM     23  C   UNL A   1      33.748 -39.779 -31.226  0.00  0.00    +0.035 A 
ATOM     24  C   UNL A   1      33.671 -40.265 -29.894  0.00  0.00    -0.026 A 
ATOM     25  C   UNL A   1      32.437 -39.989 -29.065  0.00  0.00    -0.038 C 
ENDBRANCH  16  23
ENDBRANCH  10  16
ENDBRANCH   6  15
ENDBRANCH   5   8
ENDBRANCH   1   5
BRANCH   3  26
ATOM     26  C   UNL A   1      30.861 -37.286 -25.687  0.00  0.00    +0.012 C 
BRANCH  26  27
ATOM     27  C   UNL A   1      32.347 -37.435 -25.355  0.00  0.00    -0.036 C 
BRANCH  27  28
ATOM     28  C   UNL A   1      33.278 -36.452 -26.074  0.00  0.00    -0.036 C 
BRANCH  28  29
ATOM     29  C   UNL A   1      34.201 -37.115 -27.097  0.00  0.00    +0.009 C 
BRANCH  29  30
ATOM     30  N   UNL A   1      33.740 -36.895 -28.481  0.00  0.00    -0.343 N 
ATOM     31  H   UNL A   1      33.003 -37.412 -28.880  0.00  0.00    +0.000 HD
BRANCH  30  32
ATOM     32  C   UNL A   1      34.434 -35.882 -29.196  0.00  0.00    +0.041 A 
ATOM     33  C   UNL A   1      35.696 -36.152 -29.772  0.00  0.00    -0.005 A 
ATOM     34  C   UNL A   1      36.296 -35.136 -30.524  0.00  0.00    +0.047 A 
ATOM     35  N   UNL A   1      35.716 -33.935 -30.750  0.00  0.00    -0.251 NA
ATOM     36  C   UNL A   1      34.532 -33.668 -30.187  0.00  0.00    +0.074 A 
ATOM     37  C   UNL A   1      33.984 -32.414 -30.408  0.00  0.00    -0.017 A 
ATOM     38  C   UNL A   1      32.774 -32.041 -29.829  0.00  0.00    +0.043 A 
ATOM     39 CL   UNL A   1      32.129 -30.474 -30.121  0.00  0.00    -0.083 Cl
ATOM     40  C   UNL A   1      32.092 -32.923 -29.005  0.00  0.00    -0.043 A 
ATOM     41  C   UNL A   1      32.629 -34.190 -28.779  0.00  0.00    -0.049 A 
ATOM     42  C   UNL A   1      33.844 -34.598 -29.383  0.00  0.00    +0.022 A 
ATOM     43  C   UNL A   1      37.630 -35.327 -31.201  0.00  0.00    -0.010 C 
ATOM     44  C   UNL A   1      38.463 -36.444 -30.586  0.00  0.00    -0.047 C 
ATOM     45  C   UNL A   1      37.614 -37.698 -30.457  0.00  0.00    -0.049 C 
ATOM     46  C   UNL A   1      36.430 -37.451 -29.525  0.00  0.00    -0.024 C 
ENDBRANCH  30  32
ENDBRANCH  29  30
ENDBRANCH  28  29
ENDBRANCH  27  28
ENDBRANCH  26  27
ENDBRANCH   3  26
TORSDOF 11
ENDMDL
MODEL 10
REMARK VINA RESULT:    -6.749     18.988     22.688
REMARK INTER + INTRA:         -15.887
REMARK INTER:                 -12.112
REMARK INTRA:                  -3.775
REMARK UNBOUND:                -4.799
REMARK  Name = cpd48.pdb
REMARK  13 active torsions:
REMARK  status: ('A' for Active; 'I' for Inactive)
REMARK    1  A    between atoms: C_1  and  C_2
REMARK    2  A    between atoms: C_6  and  N_7
REMARK    3  A    between atoms: N_7  and  C_8
REMARK    4  A    between atoms: C_13  and  C_14
REMARK    5  A    between atoms: N_16  and  C_17
REMARK    6  A    between atoms: C_17  and  C_18
REMARK    7  A    between atoms: N_20  and  C_21
REMARK    8  A    between atoms: C_21  and  C_22
REMARK    9  A    between atoms: C_22  and  C_23
REMARK   10  A    between atoms: C_23  and  C_24
REMARK   11  A    between atoms: C_24  and  N_25
REMARK   12  A    between atoms: N_25  and  C_26
REMARK   13  A    between atoms: C_41  and  C_42
REMARK                            x       y       z     vdW  Elec       q    Type
REMARK                         _______ _______ _______ _____ _____    ______ ____
ROOT
ATOM      1  C   UNL A   1      45.196 -18.456 -34.473  0.00  0.00    +0.230 C 
ATOM      2  O   UNL A   1      44.501 -18.903 -33.565  0.00  0.00    -0.274 OA
ATOM      3  N   UNL A   1      44.906 -17.285 -35.146  0.00  0.00    -0.314 N 
ATOM      4  H   UNL A   1      45.585 -16.897 -35.744  0.00  0.00    +0.000 HD
ENDROOT
BRANCH   1   5
ATOM      5  C   UNL A   1      46.526 -19.114 -34.869  0.00  0.00    +0.088 C 
BRANCH   5   8
ATOM      6  C   UNL A   1      46.836 -19.084 -37.309  0.00  0.00    +0.246 C 
ATOM      7  O   UNL A   1      47.324 -17.960 -37.283  0.00  0.00    -0.270 OA
ATOM      8  N   UNL A   1      46.531 -19.793 -36.163  0.00  0.00    -0.303 N 
ATOM      9  H   UNL A   1      46.317 -20.752 -36.218  0.00  0.00    +0.000 HD
BRANCH   6  15
ATOM     10  C   UNL A   1      45.716 -19.089 -39.557  0.00  0.00    +0.044 A 
ATOM     11  C   UNL A   1      45.447 -19.748 -40.766  0.00  0.00    -0.040 A 
ATOM     12  C   UNL A   1      45.973 -21.015 -41.034  0.00  0.00    -0.060 A 
ATOM     13  C   UNL A   1      46.782 -21.648 -40.096  0.00  0.00    -0.061 A 
ATOM     14  C   UNL A   1      47.065 -21.017 -38.885  0.00  0.00    -0.048 A 
ATOM     15  C   UNL A   1      46.528 -19.747 -38.607  0.00  0.00    +0.058 A 
BRANCH  10  16
ATOM     16  N   UNL A   1      45.157 -17.820 -39.288  0.00  0.00    -0.314 N 
ATOM     17  H   UNL A   1      45.055 -17.619 -38.330  0.00  0.00    +0.000 HD
BRANCH  16  23
ATOM     18  C   UNL A   1      46.104 -13.624 -41.852  0.00  0.00    -0.039 C 
ATOM     19  C   UNL A   1      45.189 -14.735 -41.410  0.00  0.00    -0.046 A 
ATOM     20  C   UNL A   1      43.864 -14.728 -41.866  0.00  0.00    -0.058 A 
ATOM     21  C   UNL A   1      42.977 -15.727 -41.482  0.00  0.00    -0.060 A 
ATOM     22  C   UNL A   1      43.403 -16.744 -40.630  0.00  0.00    -0.040 A 
ATOM     23  C   UNL A   1      44.719 -16.786 -40.148  0.00  0.00    +0.035 A 
ATOM     24  C   UNL A   1      45.635 -15.788 -40.574  0.00  0.00    -0.026 A 
ATOM     25  C   UNL A   1      47.066 -15.827 -40.089  0.00  0.00    -0.038 C 
ENDBRANCH  16  23
ENDBRANCH  10  16
ENDBRANCH   6  15
ENDBRANCH   5   8
ENDBRANCH   1   5
BRANCH   3  26
ATOM     26  C   UNL A   1      43.634 -16.612 -34.999  0.00  0.00    +0.012 C 
BRANCH  26  27
ATOM     27  C   UNL A   1      42.898 -16.326 -36.309  0.00  0.00    -0.036 C 
BRANCH  27  28
ATOM     28  C   UNL A   1      42.168 -17.527 -36.922  0.00  0.00    -0.036 C 
BRANCH  28  29
ATOM     29  C   UNL A   1      41.555 -18.469 -35.883  0.00  0.00    +0.009 C 
BRANCH  29  30
ATOM     30  N   UNL A   1      42.247 -19.772 -35.844  0.00  0.00    -0.343 N 
ATOM     31  H   UNL A   1      43.173 -19.867 -35.526  0.00  0.00    +0.000 HD
BRANCH  30  32
ATOM     32  C   UNL A   1      41.479 -20.879 -36.299  0.00  0.00    +0.041 A 
ATOM     33  C   UNL A   1      40.643 -21.582 -35.404  0.00  0.00    -0.005 A 
ATOM     34  C   UNL A   1      39.859 -22.617 -35.927  0.00  0.00    +0.047 A 
ATOM     35  N   UNL A   1      39.842 -22.947 -37.239  0.00  0.00    -0.251 NA
ATOM     36  C   UNL A   1      40.650 -22.298 -38.084  0.00  0.00    +0.074 A 
ATOM     37  C   UNL A   1      40.635 -22.687 -39.415  0.00  0.00    -0.017 A 
ATOM     38  C   UNL A   1      41.471 -22.089 -40.354  0.00  0.00    +0.043 A 
ATOM     39 CL   UNL A   1      41.429 -22.604 -41.994  0.00  0.00    -0.083 Cl
ATOM     40  C   UNL A   1      42.351 -21.089 -39.969  0.00  0.00    -0.043 A 
ATOM     41  C   UNL A   1      42.373 -20.684 -38.635  0.00  0.00    -0.049 A 
ATOM     42  C   UNL A   1      41.508 -21.259 -37.672  0.00  0.00    +0.022 A 
ATOM     43  C   UNL A   1      38.915 -23.416 -35.065  0.00  0.00    -0.010 C 
ATOM     44  C   UNL A   1      39.267 -23.371 -33.585  0.00  0.00    -0.047 C 
ATOM     45  C   UNL A   1      39.475 -21.928 -33.156  0.00  0.00    -0.049 C 
ATOM     46  C   UNL A   1      40.643 -21.306 -33.918  0.00  0.00    -0.024 C 
ENDBRANCH  30  32
ENDBRANCH  29  30
ENDBRANCH  28  29
ENDBRANCH  27  28
ENDBRANCH  26  27
ENDBRANCH   3  26
TORSDOF 11
ENDMDL
MODEL 11
REMARK VINA RESULT:    -6.697     19.013     22.625
REMARK INTER + INTRA:         -15.802
REMARK INTER:                 -11.661
REMARK INTRA:                  -4.140
REMARK UNBOUND:                -4.799
REMARK  Name = cpd48.pdb
REMARK  13 active torsions:
REMARK  status: ('A' for Active; 'I' for Inactive)
REMARK    1  A    between atoms: C_1  and  C_2
REMARK    2  A    between atoms: C_6  and  N_7
REMARK    3  A    between atoms: N_7  and  C_8
REMARK    4  A    between atoms: C_13  and  C_14
REMARK    5  A    between atoms: N_16  and  C_17
REMARK    6  A    between atoms: C_17  and  C_18
REMARK    7  A    between atoms: N_20  and  C_21
REMARK    8  A    between atoms: C_21  and  C_22
REMARK    9  A    between atoms: C_22  and  C_23
REMARK   10  A    between atoms: C_23  and  C_24
REMARK   11  A    between atoms: C_24  and  N_25
REMARK   12  A    between atoms: N_25  and  C_26
REMARK   13  A    between atoms: C_41  and  C_42
REMARK                            x       y       z     vdW  Elec       q    Type
REMARK                         _______ _______ _______ _____ _____    ______ ____
ROOT
ATOM      1  C   UNL A   1      45.822 -16.952 -37.288  0.00  0.00    +0.230 C 
ATOM      2  O   UNL A   1      45.180 -16.056 -37.830  0.00  0.00    -0.274 OA
ATOM      3  N   UNL A   1      45.471 -17.510 -36.075  0.00  0.00    -0.314 N 
ATOM      4  H   UNL A   1      45.927 -18.331 -35.777  0.00  0.00    +0.000 HD
ENDROOT
BRANCH   1   5
ATOM      5  C   UNL A   1      47.025 -17.612 -37.979  0.00  0.00    +0.088 C 
BRANCH   5   8
ATOM      6  C   UNL A   1      46.750 -18.423 -40.285  0.00  0.00    +0.246 C 
ATOM      7  O   UNL A   1      47.269 -17.417 -40.754  0.00  0.00    -0.270 OA
ATOM      8  N   UNL A   1      46.699 -18.675 -38.927  0.00  0.00    -0.303 N 
ATOM      9  H   UNL A   1      46.444 -19.567 -38.600  0.00  0.00    +0.000 HD
BRANCH   6  15
ATOM     10  C   UNL A   1      44.908 -19.136 -41.838  0.00  0.00    +0.044 A 
ATOM     11  C   UNL A   1      44.346 -20.118 -42.667  0.00  0.00    -0.040 A 
ATOM     12  C   UNL A   1      44.966 -21.358 -42.847  0.00  0.00    -0.060 A 
ATOM     13  C   UNL A   1      46.166 -21.638 -42.200  0.00  0.00    -0.061 A 
ATOM     14  C   UNL A   1      46.747 -20.681 -41.369  0.00  0.00    -0.048 A 
ATOM     15  C   UNL A   1      46.120 -19.437 -41.177  0.00  0.00    +0.058 A 
BRANCH  10  16
ATOM     16  N   UNL A   1      44.258 -17.897 -41.645  0.00  0.00    -0.314 N 
ATOM     17  H   UNL A   1      44.463 -17.222 -42.330  0.00  0.00    +0.000 HD
BRANCH  16  23
ATOM     18  C   UNL A   1      41.461 -14.261 -39.637  0.00  0.00    -0.039 C 
ATOM     19  C   UNL A   1      41.987 -15.671 -39.667  0.00  0.00    -0.046 A 
ATOM     20  C   UNL A   1      41.577 -16.558 -38.662  0.00  0.00    -0.058 A 
ATOM     21  C   UNL A   1      42.039 -17.869 -38.641  0.00  0.00    -0.060 A 
ATOM     22  C   UNL A   1      42.925 -18.308 -39.622  0.00  0.00    -0.040 A 
ATOM     23  C   UNL A   1      43.364 -17.453 -40.643  0.00  0.00    +0.035 A 
ATOM     24  C   UNL A   1      42.859 -16.127 -40.687  0.00  0.00    -0.026 A 
ATOM     25  C   UNL A   1      43.296 -15.193 -41.793  0.00  0.00    -0.038 C 
ENDBRANCH  16  23
ENDBRANCH  10  16
ENDBRANCH   6  15
ENDBRANCH   5   8
ENDBRANCH   1   5
BRANCH   3  26
ATOM     26  C   UNL A   1      44.455 -16.926 -35.228  0.00  0.00    +0.012 C 
BRANCH  26  27
ATOM     27  C   UNL A   1      43.118 -17.670 -35.215  0.00  0.00    -0.036 C 
BRANCH  27  28
ATOM     28  C   UNL A   1      43.039 -18.852 -34.242  0.00  0.00    -0.036 C 
BRANCH  28  29
ATOM     29  C   UNL A   1      43.326 -20.205 -34.896  0.00  0.00    +0.009 C 
BRANCH  29  30
ATOM     30  N   UNL A   1      42.222 -21.162 -34.689  0.00  0.00    -0.343 N 
ATOM     31  H   UNL A   1      42.262 -21.875 -34.011  0.00  0.00    +0.000 HD
BRANCH  30  32
ATOM     32  C   UNL A   1      41.097 -20.982 -35.540  0.00  0.00    +0.041 A 
ATOM     33  C   UNL A   1      39.865 -20.541 -35.008  0.00  0.00    -0.005 A 
ATOM     34  C   UNL A   1      38.815 -20.315 -35.906  0.00  0.00    +0.047 A 
ATOM     35  N   UNL A   1      38.936 -20.465 -37.245  0.00  0.00    -0.251 NA
ATOM     36  C   UNL A   1      40.095 -20.904 -37.749  0.00  0.00    +0.074 A 
ATOM     37  C   UNL A   1      40.172 -21.084 -39.122  0.00  0.00    -0.017 A 
ATOM     38  C   UNL A   1      41.328 -21.573 -39.723  0.00  0.00    +0.043 A 
ATOM     39 CL   UNL A   1      41.383 -21.789 -41.429  0.00  0.00    -0.083 Cl
ATOM     40  C   UNL A   1      42.432 -21.903 -38.952  0.00  0.00    -0.043 A 
ATOM     41  C   UNL A   1      42.370 -21.723 -37.571  0.00  0.00    -0.049 A 
ATOM     42  C   UNL A   1      41.214 -21.197 -36.943  0.00  0.00    +0.022 A 
ATOM     43  C   UNL A   1      37.467 -19.821 -35.448  0.00  0.00    -0.010 C 
ATOM     44  C   UNL A   1      37.193 -20.095 -33.976  0.00  0.00    -0.047 C 
ATOM     45  C   UNL A   1      38.374 -19.625 -33.143  0.00  0.00    -0.049 C 
ATOM     46  C   UNL A   1      39.636 -20.396 -33.520  0.00  0.00    -0.024 C 
ENDBRANCH  30  32
ENDBRANCH  29  30
ENDBRANCH  28  29
ENDBRANCH  27  28
ENDBRANCH  26  27
ENDBRANCH   3  26
TORSDOF 11
ENDMDL
MODEL 12
REMARK VINA RESULT:    -6.632     19.698     23.563
REMARK INTER + INTRA:         -15.695
REMARK INTER:                 -10.264
REMARK INTRA:                  -5.431
REMARK UNBOUND:                -4.799
REMARK  Name = cpd48.pdb
REMARK  13 active torsions:
REMARK  status: ('A' for Active; 'I' for Inactive)
REMARK    1  A    between atoms: C_1  and  C_2
REMARK    2  A    between atoms: C_6  and  N_7
REMARK    3  A    between atoms: N_7  and  C_8
REMARK    4  A    between atoms: C_13  and  C_14
REMARK    5  A    between atoms: N_16  and  C_17
REMARK    6  A    between atoms: C_17  and  C_18
REMARK    7  A    between atoms: N_20  and  C_21
REMARK    8  A    between atoms: C_21  and  C_22
REMARK    9  A    between atoms: C_22  and  C_23
REMARK   10  A    between atoms: C_23  and  C_24
REMARK   11  A    between atoms: C_24  and  N_25
REMARK   12  A    between atoms: N_25  and  C_26
REMARK   13  A    between atoms: C_41  and  C_42
REMARK                            x       y       z     vdW  Elec       q    Type
REMARK                         _______ _______ _______ _____ _____    ______ ____
ROOT
ATOM      1  C   UNL A   1      41.140 -21.096 -35.018  0.00  0.00    +0.230 C 
ATOM      2  O   UNL A   1      40.149 -21.470 -34.396  0.00  0.00    -0.274 OA
ATOM      3  N   UNL A   1      41.128 -20.819 -36.371  0.00  0.00    -0.314 N 
ATOM      4  H   UNL A   1      41.905 -20.368 -36.773  0.00  0.00    +0.000 HD
ENDROOT
BRANCH   1   5
ATOM      5  C   UNL A   1      42.469 -20.797 -34.309  0.00  0.00    +0.088 C 
BRANCH   5   8
ATOM      6  C   UNL A   1      44.604 -19.661 -34.761  0.00  0.00    +0.246 C 
ATOM      7  O   UNL A   1      44.722 -19.311 -33.592  0.00  0.00    -0.270 OA
ATOM      8  N   UNL A   1      43.598 -20.505 -35.190  0.00  0.00    -0.303 N 
ATOM      9  H   UNL A   1      43.642 -20.908 -36.087  0.00  0.00    +0.000 HD
BRANCH   6  15
ATOM     10  C   UNL A   1      45.615 -17.786 -36.093  0.00  0.00    +0.044 A 
ATOM     11  C   UNL A   1      46.519 -17.363 -37.080  0.00  0.00    -0.040 A 
ATOM     12  C   UNL A   1      47.343 -18.272 -37.749  0.00  0.00    -0.060 A 
ATOM     13  C   UNL A   1      47.280 -19.628 -37.441  0.00  0.00    -0.061 A 
ATOM     14  C   UNL A   1      46.390 -20.078 -36.466  0.00  0.00    -0.048 A 
ATOM     15  C   UNL A   1      45.552 -19.167 -35.800  0.00  0.00    +0.058 A 
BRANCH  10  16
ATOM     16  N   UNL A   1      44.770 -16.860 -35.444  0.00  0.00    -0.314 N 
ATOM     17  H   UNL A   1      44.747 -16.953 -34.464  0.00  0.00    +0.000 HD
BRANCH  16  23
ATOM     18  C   UNL A   1      40.228 -15.106 -36.613  0.00  0.00    -0.039 C 
ATOM     19  C   UNL A   1      41.723 -14.963 -36.511  0.00  0.00    -0.046 A 
ATOM     20  C   UNL A   1      42.309 -13.764 -36.938  0.00  0.00    -0.058 A 
ATOM     21  C   UNL A   1      43.686 -13.584 -36.870  0.00  0.00    -0.060 A 
ATOM     22  C   UNL A   1      44.496 -14.606 -36.381  0.00  0.00    -0.040 A 
ATOM     23  C   UNL A   1      43.952 -15.823 -35.948  0.00  0.00    +0.035 A 
ATOM     24  C   UNL A   1      42.542 -15.990 -35.978  0.00  0.00    -0.026 A 
ATOM     25  C   UNL A   1      41.928 -17.283 -35.492  0.00  0.00    -0.038 C 
ENDBRANCH  16  23
ENDBRANCH  10  16
ENDBRANCH   6  15
ENDBRANCH   5   8
ENDBRANCH   1   5
BRANCH   3  26
ATOM     26  C   UNL A   1      40.007 -21.170 -37.214  0.00  0.00    +0.012 C 
BRANCH  26  27
ATOM     27  C   UNL A   1      40.250 -21.002 -38.716  0.00  0.00    -0.036 C 
BRANCH  27  28
ATOM     28  C   UNL A   1      41.170 -22.052 -39.349  0.00  0.00    -0.036 C 
BRANCH  28  29
ATOM     29  C   UNL A   1      42.362 -21.454 -40.097  0.00  0.00    +0.009 C 
BRANCH  29  30
ATOM     30  N   UNL A   1      43.330 -20.824 -39.179  0.00  0.00    -0.343 N 
ATOM     31  H   UNL A   1      43.273 -20.927 -38.201  0.00  0.00    +0.000 HD
BRANCH  30  32
ATOM     32  C   UNL A   1      44.352 -20.060 -39.806  0.00  0.00    +0.041 A 
ATOM     33  C   UNL A   1      45.486 -20.698 -40.354  0.00  0.00    -0.005 A 
ATOM     34  C   UNL A   1      46.422 -19.899 -41.020  0.00  0.00    +0.047 A 
ATOM     35  N   UNL A   1      46.274 -18.565 -41.190  0.00  0.00    -0.251 NA
ATOM     36  C   UNL A   1      45.212 -17.954 -40.653  0.00  0.00    +0.074 A 
ATOM     37  C   UNL A   1      45.111 -16.580 -40.813  0.00  0.00    -0.017 A 
ATOM     38  C   UNL A   1      44.058 -15.862 -40.254  0.00  0.00    +0.043 A 
ATOM     39 CL   UNL A   1      43.970 -14.158 -40.469  0.00  0.00    -0.083 Cl
ATOM     40  C   UNL A   1      43.085 -16.512 -39.510  0.00  0.00    -0.043 A 
ATOM     41  C   UNL A   1      43.171 -17.894 -39.346  0.00  0.00    -0.049 A 
ATOM     42  C   UNL A   1      44.218 -18.647 -39.932  0.00  0.00    +0.022 A 
ATOM     43  C   UNL A   1      47.656 -20.481 -41.661  0.00  0.00    -0.010 C 
ATOM     44  C   UNL A   1      48.049 -21.837 -41.090  0.00  0.00    -0.047 C 
ATOM     45  C   UNL A   1      46.834 -22.750 -41.068  0.00  0.00    -0.049 C 
ATOM     46  C   UNL A   1      45.747 -22.176 -40.164  0.00  0.00    -0.024 C 
ENDBRANCH  30  32
ENDBRANCH  29  30
ENDBRANCH  28  29
ENDBRANCH  27  28
ENDBRANCH  26  27
ENDBRANCH   3  26
TORSDOF 11
ENDMDL
MODEL 13
REMARK VINA RESULT:    -6.619     19.999     23.577
REMARK INTER + INTRA:         -15.674
REMARK INTER:                 -10.315
REMARK INTRA:                  -5.359
REMARK UNBOUND:                -4.799
REMARK  Name = cpd48.pdb
REMARK  13 active torsions:
REMARK  status: ('A' for Active; 'I' for Inactive)
REMARK    1  A    between atoms: C_1  and  C_2
REMARK    2  A    between atoms: C_6  and  N_7
REMARK    3  A    between atoms: N_7  and  C_8
REMARK    4  A    between atoms: C_13  and  C_14
REMARK    5  A    between atoms: N_16  and  C_17
REMARK    6  A    between atoms: C_17  and  C_18
REMARK    7  A    between atoms: N_20  and  C_21
REMARK    8  A    between atoms: C_21  and  C_22
REMARK    9  A    between atoms: C_22  and  C_23
REMARK   10  A    between atoms: C_23  and  C_24
REMARK   11  A    between atoms: C_24  and  N_25
REMARK   12  A    between atoms: N_25  and  C_26
REMARK   13  A    between atoms: C_41  and  C_42
REMARK                            x       y       z     vdW  Elec       q    Type
REMARK                         _______ _______ _______ _____ _____    ______ ____
ROOT
ATOM      1  C   UNL A   1      44.670 -14.131 -37.263  0.00  0.00    +0.230 C 
ATOM      2  O   UNL A   1      44.084 -13.786 -36.240  0.00  0.00    -0.274 OA
ATOM      3  N   UNL A   1      44.025 -14.394 -38.456  0.00  0.00    -0.314 N 
ATOM      4  H   UNL A   1      44.561 -14.503 -39.275  0.00  0.00    +0.000 HD
ENDROOT
BRANCH   1   5
ATOM      5  C   UNL A   1      46.203 -14.195 -37.331  0.00  0.00    +0.088 C 
BRANCH   5   8
ATOM      6  C   UNL A   1      46.599 -16.621 -37.232  0.00  0.00    +0.246 C 
ATOM      7  O   UNL A   1      46.107 -16.796 -38.340  0.00  0.00    -0.270 OA
ATOM      8  N   UNL A   1      46.812 -15.364 -36.699  0.00  0.00    -0.303 N 
ATOM      9  H   UNL A   1      47.372 -15.256 -35.897  0.00  0.00    +0.000 HD
BRANCH   6  15
ATOM     10  C   UNL A   1      46.084 -18.856 -36.207  0.00  0.00    +0.044 A 
ATOM     11  C   UNL A   1      46.484 -19.929 -35.396  0.00  0.00    -0.040 A 
ATOM     12  C   UNL A   1      47.739 -19.946 -34.782  0.00  0.00    -0.060 A 
ATOM     13  C   UNL A   1      48.623 -18.887 -34.970  0.00  0.00    -0.061 A 
ATOM     14  C   UNL A   1      48.252 -17.807 -35.770  0.00  0.00    -0.048 A 
ATOM     15  C   UNL A   1      46.985 -17.781 -36.380  0.00  0.00    +0.058 A 
BRANCH  10  16
ATOM     16  N   UNL A   1      44.802 -18.839 -36.801  0.00  0.00    -0.314 N 
ATOM     17  H   UNL A   1      44.796 -19.079 -37.755  0.00  0.00    +0.000 HD
BRANCH  16  23
ATOM     18  C   UNL A   1      40.329 -20.371 -35.153  0.00  0.00    -0.039 C 
ATOM     19  C   UNL A   1      41.338 -19.295 -35.454  0.00  0.00    -0.046 A 
ATOM     20  C   UNL A   1      40.987 -17.962 -35.203  0.00  0.00    -0.058 A 
ATOM     21  C   UNL A   1      41.881 -16.931 -35.470  0.00  0.00    -0.060 A 
ATOM     22  C   UNL A   1      43.137 -17.221 -36.000  0.00  0.00    -0.040 A 
ATOM     23  C   UNL A   1      43.526 -18.540 -36.270  0.00  0.00    +0.035 A 
ATOM     24  C   UNL A   1      42.628 -19.595 -35.958  0.00  0.00    -0.026 A 
ATOM     25  C   UNL A   1      43.035 -21.028 -36.215  0.00  0.00    -0.038 C 
ENDBRANCH  16  23
ENDBRANCH  10  16
ENDBRANCH   6  15
ENDBRANCH   5   8
ENDBRANCH   1   5
BRANCH   3  26
ATOM     26  C   UNL A   1      42.587 -14.514 -38.539  0.00  0.00    +0.012 C 
BRANCH  26  27
ATOM     27  C   UNL A   1      42.055 -14.999 -39.889  0.00  0.00    -0.036 C 
BRANCH  27  28
ATOM     28  C   UNL A   1      43.123 -15.237 -40.963  0.00  0.00    -0.036 C 
BRANCH  28  29
ATOM     29  C   UNL A   1      43.398 -16.717 -41.237  0.00  0.00    +0.009 C 
BRANCH  29  30
ATOM     30  N   UNL A   1      43.721 -17.456 -40.002  0.00  0.00    -0.343 N 
ATOM     31  H   UNL A   1      44.003 -17.002 -39.175  0.00  0.00    +0.000 HD
BRANCH  30  32
ATOM     32  C   UNL A   1      43.596 -18.869 -40.091  0.00  0.00    +0.041 A 
ATOM     33  C   UNL A   1      42.382 -19.501 -39.743  0.00  0.00    -0.005 A 
ATOM     34  C   UNL A   1      42.298 -20.887 -39.919  0.00  0.00    +0.047 A 
ATOM     35  N   UNL A   1      43.302 -21.633 -40.434  0.00  0.00    -0.251 NA
ATOM     36  C   UNL A   1      44.461 -21.041 -40.743  0.00  0.00    +0.074 A 
ATOM     37  C   UNL A   1      45.482 -21.842 -41.232  0.00  0.00    -0.017 A 
ATOM     38  C   UNL A   1      46.731 -21.312 -41.544  0.00  0.00    +0.043 A 
ATOM     39 CL   UNL A   1      47.974 -22.339 -42.141  0.00  0.00    -0.083 Cl
ATOM     40  C   UNL A   1      46.983 -19.962 -41.359  0.00  0.00    -0.043 A 
ATOM     41  C   UNL A   1      45.964 -19.144 -40.874  0.00  0.00    -0.049 A 
ATOM     42  C   UNL A   1      44.677 -19.658 -40.580  0.00  0.00    +0.022 A 
ATOM     43  C   UNL A   1      41.041 -21.657 -39.601  0.00  0.00    -0.010 C 
ATOM     44  C   UNL A   1      40.123 -20.934 -38.625  0.00  0.00    -0.047 C 
ATOM     45  C   UNL A   1      39.909 -19.504 -39.093  0.00  0.00    -0.049 C 
ATOM     46  C   UNL A   1      41.232 -18.744 -39.117  0.00  0.00    -0.024 C 
ENDBRANCH  30  32
ENDBRANCH  29  30
ENDBRANCH  28  29
ENDBRANCH  27  28
ENDBRANCH  26  27
ENDBRANCH   3  26
TORSDOF 11
ENDMDL
MODEL 14
REMARK VINA RESULT:    -6.586     19.687     23.528
REMARK INTER + INTRA:         -15.619
REMARK INTER:                 -11.211
REMARK INTRA:                  -4.409
REMARK UNBOUND:                -4.799
REMARK  Name = cpd48.pdb
REMARK  13 active torsions:
REMARK  status: ('A' for Active; 'I' for Inactive)
REMARK    1  A    between atoms: C_1  and  C_2
REMARK    2  A    between atoms: C_6  and  N_7
REMARK    3  A    between atoms: N_7  and  C_8
REMARK    4  A    between atoms: C_13  and  C_14
REMARK    5  A    between atoms: N_16  and  C_17
REMARK    6  A    between atoms: C_17  and  C_18
REMARK    7  A    between atoms: N_20  and  C_21
REMARK    8  A    between atoms: C_21  and  C_22
REMARK    9  A    between atoms: C_22  and  C_23
REMARK   10  A    between atoms: C_23  and  C_24
REMARK   11  A    between atoms: C_24  and  N_25
REMARK   12  A    between atoms: N_25  and  C_26
REMARK   13  A    between atoms: C_41  and  C_42
REMARK                            x       y       z     vdW  Elec       q    Type
REMARK                         _______ _______ _______ _____ _____    ______ ____
ROOT
ATOM      1  C   UNL A   1      40.636 -20.481 -35.552  0.00  0.00    +0.230 C 
ATOM      2  O   UNL A   1      39.613 -19.828 -35.363  0.00  0.00    -0.274 OA
ATOM      3  N   UNL A   1      40.754 -21.436 -36.543  0.00  0.00    -0.314 N 
ATOM      4  H   UNL A   1      41.645 -21.802 -36.749  0.00  0.00    +0.000 HD
ENDROOT
BRANCH   1   5
ATOM      5  C   UNL A   1      41.924 -20.208 -34.762  0.00  0.00    +0.088 C 
BRANCH   5   8
ATOM      6  C   UNL A   1      44.328 -19.742 -35.004  0.00  0.00    +0.246 C 
ATOM      7  O   UNL A   1      44.596 -20.323 -33.959  0.00  0.00    -0.270 OA
ATOM      8  N   UNL A   1      43.060 -19.741 -35.554  0.00  0.00    -0.303 N 
ATOM      9  H   UNL A   1      42.922 -19.426 -36.476  0.00  0.00    +0.000 HD
BRANCH   6  15
ATOM     10  C   UNL A   1      45.407 -17.569 -35.657  0.00  0.00    +0.044 A 
ATOM     11  C   UNL A   1      46.408 -16.889 -36.366  0.00  0.00    -0.040 A 
ATOM     12  C   UNL A   1      47.357 -17.579 -37.125  0.00  0.00    -0.060 A 
ATOM     13  C   UNL A   1      47.324 -18.969 -37.188  0.00  0.00    -0.061 A 
ATOM     14  C   UNL A   1      46.339 -19.672 -36.495  0.00  0.00    -0.048 A 
ATOM     15  C   UNL A   1      45.376 -18.979 -35.739  0.00  0.00    +0.058 A 
BRANCH  10  16
ATOM     16  N   UNL A   1      44.439 -16.858 -34.914  0.00  0.00    -0.314 N 
ATOM     17  H   UNL A   1      43.544 -16.847 -35.325  0.00  0.00    +0.000 HD
BRANCH  16  23
ATOM     18  C   UNL A   1      43.994 -12.604 -32.311  0.00  0.00    -0.039 C 
ATOM     19  C   UNL A   1      44.295 -14.075 -32.413  0.00  0.00    -0.046 A 
ATOM     20  C   UNL A   1      44.676 -14.760 -31.251  0.00  0.00    -0.058 A 
ATOM     21  C   UNL A   1      44.971 -16.118 -31.293  0.00  0.00    -0.060 A 
ATOM     22  C   UNL A   1      44.895 -16.808 -32.501  0.00  0.00    -0.040 A 
ATOM     23  C   UNL A   1      44.523 -16.160 -33.687  0.00  0.00    +0.035 A 
ATOM     24  C   UNL A   1      44.182 -14.783 -33.635  0.00  0.00    -0.026 A 
ATOM     25  C   UNL A   1      43.751 -14.068 -34.896  0.00  0.00    -0.038 C 
ENDBRANCH  16  23
ENDBRANCH  10  16
ENDBRANCH   6  15
ENDBRANCH   5   8
ENDBRANCH   1   5
BRANCH   3  26
ATOM     26  C   UNL A   1      39.610 -21.914 -37.287  0.00  0.00    +0.012 C 
BRANCH  26  27
ATOM     27  C   UNL A   1      39.762 -21.867 -38.809  0.00  0.00    -0.036 C 
BRANCH  27  28
ATOM     28  C   UNL A   1      40.610 -20.706 -39.344  0.00  0.00    -0.036 C 
BRANCH  28  29
ATOM     29  C   UNL A   1      41.941 -21.148 -39.954  0.00  0.00    +0.009 C 
BRANCH  29  30
ATOM     30  N   UNL A   1      43.071 -20.929 -39.031  0.00  0.00    -0.343 N 
ATOM     31  H   UNL A   1      43.114 -21.350 -38.142  0.00  0.00    +0.000 HD
BRANCH  30  32
ATOM     32  C   UNL A   1      44.091 -20.067 -39.516  0.00  0.00    +0.041 A 
ATOM     33  C   UNL A   1      45.178 -20.590 -40.252  0.00  0.00    -0.005 A 
ATOM     34  C   UNL A   1      46.112 -19.683 -40.763  0.00  0.00    +0.047 A 
ATOM     35  N   UNL A   1      46.005 -18.342 -40.616  0.00  0.00    -0.251 NA
ATOM     36  C   UNL A   1      44.990 -17.845 -39.901  0.00  0.00    +0.074 A 
ATOM     37  C   UNL A   1      44.931 -16.469 -39.738  0.00  0.00    -0.017 A 
ATOM     38  C   UNL A   1      43.929 -15.873 -38.977  0.00  0.00    +0.043 A 
ATOM     39 CL   UNL A   1      43.895 -14.163 -38.792  0.00  0.00    -0.083 Cl
ATOM     40  C   UNL A   1      42.967 -16.652 -38.354  0.00  0.00    -0.043 A 
ATOM     41  C   UNL A   1      43.010 -18.036 -38.515  0.00  0.00    -0.049 A 
ATOM     42  C   UNL A   1      44.003 -18.659 -39.309  0.00  0.00    +0.022 A 
ATOM     43  C   UNL A   1      47.296 -20.133 -41.581  0.00  0.00    -0.010 C 
ATOM     44  C   UNL A   1      47.664 -21.593 -41.356  0.00  0.00    -0.047 C 
ATOM     45  C   UNL A   1      46.419 -22.456 -41.483  0.00  0.00    -0.049 C 
ATOM     46  C   UNL A   1      45.393 -22.078 -40.418  0.00  0.00    -0.024 C 
ENDBRANCH  30  32
ENDBRANCH  29  30
ENDBRANCH  28  29
ENDBRANCH  27  28
ENDBRANCH  26  27
ENDBRANCH   3  26
TORSDOF 11
ENDMDL
MODEL 15
REMARK VINA RESULT:    -6.521     18.736     22.261
REMARK INTER + INTRA:         -15.513
REMARK INTER:                 -11.355
REMARK INTRA:                  -4.157
REMARK UNBOUND:                -4.799
REMARK  Name = cpd48.pdb
REMARK  13 active torsions:
REMARK  status: ('A' for Active; 'I' for Inactive)
REMARK    1  A    between atoms: C_1  and  C_2
REMARK    2  A    between atoms: C_6  and  N_7
REMARK    3  A    between atoms: N_7  and  C_8
REMARK    4  A    between atoms: C_13  and  C_14
REMARK    5  A    between atoms: N_16  and  C_17
REMARK    6  A    between atoms: C_17  and  C_18
REMARK    7  A    between atoms: N_20  and  C_21
REMARK    8  A    between atoms: C_21  and  C_22
REMARK    9  A    between atoms: C_22  and  C_23
REMARK   10  A    between atoms: C_23  and  C_24
REMARK   11  A    between atoms: C_24  and  N_25
REMARK   12  A    between atoms: N_25  and  C_26
REMARK   13  A    between atoms: C_41  and  C_42
REMARK                            x       y       z     vdW  Elec       q    Type
REMARK                         _______ _______ _______ _____ _____    ______ ____
ROOT
ATOM      1  C   UNL A   1      41.710 -15.242 -39.991  0.00  0.00    +0.230 C 
ATOM      2  O   UNL A   1      41.286 -14.199 -40.480  0.00  0.00    -0.274 OA
ATOM      3  N   UNL A   1      40.890 -16.270 -39.568  0.00  0.00    -0.314 N 
ATOM      4  H   UNL A   1      41.293 -17.140 -39.341  0.00  0.00    +0.000 HD
ENDROOT
BRANCH   1   5
ATOM      5  C   UNL A   1      43.214 -15.540 -39.908  0.00  0.00    +0.088 C 
BRANCH   5   8
ATOM      6  C   UNL A   1      44.911 -16.908 -38.766  0.00  0.00    +0.246 C 
ATOM      7  O   UNL A   1      45.809 -16.481 -39.483  0.00  0.00    -0.270 OA
ATOM      8  N   UNL A   1      43.622 -16.413 -38.809  0.00  0.00    -0.303 N 
ATOM      9  H   UNL A   1      42.980 -16.646 -38.100  0.00  0.00    +0.000 HD
BRANCH   6  15
ATOM     10  C   UNL A   1      45.956 -19.122 -38.205  0.00  0.00    +0.044 A 
ATOM     11  C   UNL A   1      46.174 -20.148 -37.272  0.00  0.00    -0.040 A 
ATOM     12  C   UNL A   1      45.641 -20.081 -35.982  0.00  0.00    -0.060 A 
ATOM     13  C   UNL A   1      44.879 -18.982 -35.597  0.00  0.00    -0.061 A 
ATOM     14  C   UNL A   1      44.644 -17.948 -36.504  0.00  0.00    -0.048 A 
ATOM     15  C   UNL A   1      45.170 -18.018 -37.806  0.00  0.00    +0.058 A 
BRANCH  10  16
ATOM     16  N   UNL A   1      46.478 -19.215 -39.514  0.00  0.00    -0.314 N 
ATOM     17  H   UNL A   1      47.331 -18.742 -39.642  0.00  0.00    +0.000 HD
BRANCH  16  23
ATOM     18  C   UNL A   1      46.502 -23.164 -42.592  0.00  0.00    -0.039 C 
ATOM     19  C   UNL A   1      46.004 -21.807 -42.174  0.00  0.00    -0.046 A 
ATOM     20  C   UNL A   1      45.037 -21.178 -42.970  0.00  0.00    -0.058 A 
ATOM     21  C   UNL A   1      44.548 -19.921 -42.631  0.00  0.00    -0.060 A 
ATOM     22  C   UNL A   1      45.026 -19.274 -41.494  0.00  0.00    -0.040 A 
ATOM     23  C   UNL A   1      45.996 -19.866 -40.673  0.00  0.00    +0.035 A 
ATOM     24  C   UNL A   1      46.464 -21.167 -40.997  0.00  0.00    -0.026 A 
ATOM     25  C   UNL A   1      47.489 -21.838 -40.112  0.00  0.00    -0.038 C 
ENDBRANCH  16  23
ENDBRANCH  10  16
ENDBRANCH   6  15
ENDBRANCH   5   8
ENDBRANCH   1   5
BRANCH   3  26
ATOM     26  C   UNL A   1      39.459 -16.109 -39.448  0.00  0.00    +0.012 C 
BRANCH  26  27
ATOM     27  C   UNL A   1      38.887 -16.415 -38.062  0.00  0.00    -0.036 C 
BRANCH  27  28
ATOM     28  C   UNL A   1      39.907 -16.398 -36.918  0.00  0.00    -0.036 C 
BRANCH  28  29
ATOM     29  C   UNL A   1      39.748 -17.560 -35.936  0.00  0.00    +0.009 C 
BRANCH  29  30
ATOM     30  N   UNL A   1      41.031 -18.241 -35.676  0.00  0.00    -0.343 N 
ATOM     31  H   UNL A   1      41.834 -17.756 -35.378  0.00  0.00    +0.000 HD
BRANCH  30  32
ATOM     32  C   UNL A   1      41.024 -19.647 -35.887  0.00  0.00    +0.041 A 
ATOM     33  C   UNL A   1      40.704 -20.525 -34.827  0.00  0.00    -0.005 A 
ATOM     34  C   UNL A   1      40.644 -21.893 -35.115  0.00  0.00    +0.047 A 
ATOM     35  N   UNL A   1      40.843 -22.403 -36.352  0.00  0.00    -0.251 NA
ATOM     36  C   UNL A   1      41.168 -21.576 -37.352  0.00  0.00    +0.074 A 
ATOM     37  C   UNL A   1      41.402 -22.136 -38.599  0.00  0.00    -0.017 A 
ATOM     38  C   UNL A   1      41.782 -21.351 -39.685  0.00  0.00    +0.043 A 
ATOM     39 CL   UNL A   1      42.070 -22.083 -41.214  0.00  0.00    -0.083 Cl
ATOM     40  C   UNL A   1      41.944 -19.982 -39.536  0.00  0.00    -0.043 A 
ATOM     41  C   UNL A   1      41.706 -19.405 -38.289  0.00  0.00    -0.049 A 
ATOM     42  C   UNL A   1      41.290 -20.183 -37.180  0.00  0.00    +0.022 A 
ATOM     43  C   UNL A   1      40.290 -22.915 -34.064  0.00  0.00    -0.010 C 
ATOM     44  C   UNL A   1      40.524 -22.422 -32.643  0.00  0.00    -0.047 C 
ATOM     45  C   UNL A   1      39.880 -21.057 -32.466  0.00  0.00    -0.049 C 
ATOM     46  C   UNL A   1      40.517 -20.038 -33.408  0.00  0.00    -0.024 C 
ENDBRANCH  30  32
ENDBRANCH  29  30
ENDBRANCH  28  29
ENDBRANCH  27  28
ENDBRANCH  26  27
ENDBRANCH   3  26
TORSDOF 11
ENDMDL
MODEL 16
REMARK VINA RESULT:    -6.355     17.614     21.266
REMARK INTER + INTRA:         -15.240
REMARK INTER:                 -12.138
REMARK INTRA:                  -3.102
REMARK UNBOUND:                -4.799
REMARK  Name = cpd48.pdb
REMARK  13 active torsions:
REMARK  status: ('A' for Active; 'I' for Inactive)
REMARK    1  A    between atoms: C_1  and  C_2
REMARK    2  A    between atoms: C_6  and  N_7
REMARK    3  A    between atoms: N_7  and  C_8
REMARK    4  A    between atoms: C_13  and  C_14
REMARK    5  A    between atoms: N_16  and  C_17
REMARK    6  A    between atoms: C_17  and  C_18
REMARK    7  A    between atoms: N_20  and  C_21
REMARK    8  A    between atoms: C_21  and  C_22
REMARK    9  A    between atoms: C_22  and  C_23
REMARK   10  A    between atoms: C_23  and  C_24
REMARK   11  A    between atoms: C_24  and  N_25
REMARK   12  A    between atoms: N_25  and  C_26
REMARK   13  A    between atoms: C_41  and  C_42
REMARK                            x       y       z     vdW  Elec       q    Type
REMARK                         _______ _______ _______ _____ _____    ______ ____
ROOT
ATOM      1  C   UNL A   1      40.424 -19.325 -37.184  0.00  0.00    +0.230 C 
ATOM      2  O   UNL A   1      39.904 -18.511 -36.426  0.00  0.00    -0.274 OA
ATOM      3  N   UNL A   1      40.068 -20.659 -37.226  0.00  0.00    -0.314 N 
ATOM      4  H   UNL A   1      40.401 -21.220 -37.964  0.00  0.00    +0.000 HD
ENDROOT
BRANCH   1   5
ATOM      5  C   UNL A   1      41.453 -18.899 -38.241  0.00  0.00    +0.088 C 
BRANCH   5   8
ATOM      6  C   UNL A   1      43.612 -19.871 -37.571  0.00  0.00    +0.246 C 
ATOM      7  O   UNL A   1      43.303 -20.977 -37.998  0.00  0.00    -0.270 OA
ATOM      8  N   UNL A   1      42.825 -18.751 -37.758  0.00  0.00    -0.303 N 
ATOM      9  H   UNL A   1      43.186 -17.856 -37.567  0.00  0.00    +0.000 HD
BRANCH   6  15
ATOM     10  C   UNL A   1      46.099 -19.528 -37.482  0.00  0.00    +0.044 A 
ATOM     11  C   UNL A   1      47.263 -19.355 -36.718  0.00  0.00    -0.040 A 
ATOM     12  C   UNL A   1      47.216 -19.322 -35.321  0.00  0.00    -0.060 A 
ATOM     13  C   UNL A   1      45.999 -19.460 -34.660  0.00  0.00    -0.061 A 
ATOM     14  C   UNL A   1      44.827 -19.636 -35.394  0.00  0.00    -0.048 A 
ATOM     15  C   UNL A   1      44.872 -19.681 -36.798  0.00  0.00    +0.058 A 
BRANCH  10  16
ATOM     16  N   UNL A   1      46.164 -19.586 -38.891  0.00  0.00    -0.314 N 
ATOM     17  H   UNL A   1      46.046 -18.716 -39.337  0.00  0.00    +0.000 HD
BRANCH  16  23
ATOM     18  C   UNL A   1      44.846 -22.127 -43.000  0.00  0.00    -0.039 C 
ATOM     19  C   UNL A   1      45.724 -21.906 -41.797  0.00  0.00    -0.046 A 
ATOM     20  C   UNL A   1      46.766 -22.812 -41.557  0.00  0.00    -0.058 A 
ATOM     21  C   UNL A   1      47.602 -22.656 -40.457  0.00  0.00    -0.060 A 
ATOM     22  C   UNL A   1      47.400 -21.594 -39.578  0.00  0.00    -0.040 A 
ATOM     23  C   UNL A   1      46.367 -20.668 -39.778  0.00  0.00    +0.035 A 
ATOM     24  C   UNL A   1      45.541 -20.805 -40.925  0.00  0.00    -0.026 A 
ATOM     25  C   UNL A   1      44.437 -19.803 -41.178  0.00  0.00    -0.038 C 
ENDBRANCH  16  23
ENDBRANCH  10  16
ENDBRANCH   6  15
ENDBRANCH   5   8
ENDBRANCH   1   5
BRANCH   3  26
ATOM     26  C   UNL A   1      39.220 -21.258 -36.219  0.00  0.00    +0.012 C 
BRANCH  26  27
ATOM     27  C   UNL A   1      39.566 -22.704 -35.859  0.00  0.00    -0.036 C 
BRANCH  27  28
ATOM     28  C   UNL A   1      40.196 -22.898 -34.474  0.00  0.00    -0.036 C 
BRANCH  28  29
ATOM     29  C   UNL A   1      41.020 -21.699 -34.002  0.00  0.00    +0.009 C 
BRANCH  29  30
ATOM     30  N   UNL A   1      40.515 -21.150 -32.729  0.00  0.00    -0.343 N 
ATOM     31  H   UNL A   1      40.541 -21.662 -31.888  0.00  0.00    +0.000 HD
BRANCH  30  32
ATOM     32  C   UNL A   1      39.990 -19.831 -32.803  0.00  0.00    +0.041 A 
ATOM     33  C   UNL A   1      38.594 -19.620 -32.832  0.00  0.00    -0.005 A 
ATOM     34  C   UNL A   1      38.139 -18.297 -32.833  0.00  0.00    +0.047 A 
ATOM     35  N   UNL A   1      38.963 -17.226 -32.775  0.00  0.00    -0.251 NA
ATOM     36  C   UNL A   1      40.286 -17.423 -32.771  0.00  0.00    +0.074 A 
ATOM     37  C   UNL A   1      41.103 -16.302 -32.750  0.00  0.00    -0.017 A 
ATOM     38  C   UNL A   1      42.490 -16.417 -32.781  0.00  0.00    +0.043 A 
ATOM     39 CL   UNL A   1      43.469 -15.003 -32.761  0.00  0.00    -0.083 Cl
ATOM     40  C   UNL A   1      43.087 -17.666 -32.845  0.00  0.00    -0.043 A 
ATOM     41  C   UNL A   1      42.278 -18.802 -32.862  0.00  0.00    -0.049 A 
ATOM     42  C   UNL A   1      40.866 -18.707 -32.799  0.00  0.00    +0.022 A 
ATOM     43  C   UNL A   1      36.669 -17.959 -32.840  0.00  0.00    -0.010 C 
ATOM     44  C   UNL A   1      35.794 -19.090 -33.362  0.00  0.00    -0.047 C 
ATOM     45  C   UNL A   1      36.160 -20.384 -32.655  0.00  0.00    -0.049 C 
ATOM     46  C   UNL A   1      37.610 -20.763 -32.947  0.00  0.00    -0.024 C 
ENDBRANCH  30  32
ENDBRANCH  29  30
ENDBRANCH  28  29
ENDBRANCH  27  28
ENDBRANCH  26  27
ENDBRANCH   3  26
TORSDOF 11
ENDMDL
MODEL 17
REMARK VINA RESULT:    -6.346     18.736     22.357
REMARK INTER + INTRA:         -15.226
REMARK INTER:                 -11.610
REMARK INTRA:                  -3.616
REMARK UNBOUND:                -4.799
REMARK  Name = cpd48.pdb
REMARK  13 active torsions:
REMARK  status: ('A' for Active; 'I' for Inactive)
REMARK    1  A    between atoms: C_1  and  C_2
REMARK    2  A    between atoms: C_6  and  N_7
REMARK    3  A    between atoms: N_7  and  C_8
REMARK    4  A    between atoms: C_13  and  C_14
REMARK    5  A    between atoms: N_16  and  C_17
REMARK    6  A    between atoms: C_17  and  C_18
REMARK    7  A    between atoms: N_20  and  C_21
REMARK    8  A    between atoms: C_21  and  C_22
REMARK    9  A    between atoms: C_22  and  C_23
REMARK   10  A    between atoms: C_23  and  C_24
REMARK   11  A    between atoms: C_24  and  N_25
REMARK   12  A    between atoms: N_25  and  C_26
REMARK   13  A    between atoms: C_41  and  C_42
REMARK                            x       y       z     vdW  Elec       q    Type
REMARK                         _______ _______ _______ _____ _____    ______ ____
ROOT
ATOM      1  C   UNL A   1      40.557 -17.646 -37.753  0.00  0.00    +0.230 C 
ATOM      2  O   UNL A   1      40.377 -17.940 -36.574  0.00  0.00    -0.274 OA
ATOM      3  N   UNL A   1      40.352 -18.530 -38.795  0.00  0.00    -0.314 N 
ATOM      4  H   UNL A   1      40.353 -18.188 -39.718  0.00  0.00    +0.000 HD
ENDROOT
BRANCH   1   5
ATOM      5  C   UNL A   1      40.925 -16.218 -38.180  0.00  0.00    +0.088 C 
BRANCH   5   8
ATOM      6  C   UNL A   1      43.111 -16.296 -39.308  0.00  0.00    +0.246 C 
ATOM      7  O   UNL A   1      42.609 -16.669 -40.362  0.00  0.00    -0.270 OA
ATOM      8  N   UNL A   1      42.356 -15.922 -38.212  0.00  0.00    -0.303 N 
ATOM      9  H   UNL A   1      42.781 -15.457 -37.456  0.00  0.00    +0.000 HD
BRANCH   6  15
ATOM     10  C   UNL A   1      45.357 -17.421 -39.302  0.00  0.00    +0.044 A 
ATOM     11  C   UNL A   1      46.748 -17.330 -39.142  0.00  0.00    -0.040 A 
ATOM     12  C   UNL A   1      47.367 -16.111 -38.851  0.00  0.00    -0.060 A 
ATOM     13  C   UNL A   1      46.603 -14.955 -38.715  0.00  0.00    -0.061 A 
ATOM     14  C   UNL A   1      45.218 -15.017 -38.867  0.00  0.00    -0.048 A 
ATOM     15  C   UNL A   1      44.592 -16.244 -39.149  0.00  0.00    +0.058 A 
BRANCH  10  16
ATOM     16  N   UNL A   1      44.742 -18.664 -39.571  0.00  0.00    -0.314 N 
ATOM     17  H   UNL A   1      44.084 -18.943 -38.894  0.00  0.00    +0.000 HD
BRANCH  16  23
ATOM     18  C   UNL A   1      46.565 -22.979 -41.339  0.00  0.00    -0.039 C 
ATOM     19  C   UNL A   1      45.789 -21.699 -41.497  0.00  0.00    -0.046 A 
ATOM     20  C   UNL A   1      45.219 -21.415 -42.746  0.00  0.00    -0.058 A 
ATOM     21  C   UNL A   1      44.498 -20.243 -42.946  0.00  0.00    -0.060 A 
ATOM     22  C   UNL A   1      44.345 -19.336 -41.900  0.00  0.00    -0.040 A 
ATOM     23  C   UNL A   1      44.902 -19.579 -40.637  0.00  0.00    +0.035 A 
ATOM     24  C   UNL A   1      45.602 -20.796 -40.422  0.00  0.00    -0.026 A 
ATOM     25  C   UNL A   1      46.189 -21.094 -39.061  0.00  0.00    -0.038 C 
ENDBRANCH  16  23
ENDBRANCH  10  16
ENDBRANCH   6  15
ENDBRANCH   5   8
ENDBRANCH   1   5
BRANCH   3  26
ATOM     26  C   UNL A   1      40.136 -19.942 -38.571  0.00  0.00    +0.012 C 
BRANCH  26  27
ATOM     27  C   UNL A   1      41.169 -20.865 -39.219  0.00  0.00    -0.036 C 
BRANCH  27  28
ATOM     28  C   UNL A   1      42.112 -21.576 -38.240  0.00  0.00    -0.036 C 
BRANCH  28  29
ATOM     29  C   UNL A   1      42.834 -20.626 -37.283  0.00  0.00    +0.009 C 
BRANCH  29  30
ATOM     30  N   UNL A   1      43.033 -21.230 -35.952  0.00  0.00    -0.343 N 
ATOM     31  H   UNL A   1      43.524 -22.074 -35.825  0.00  0.00    +0.000 HD
BRANCH  30  32
ATOM     32  C   UNL A   1      42.466 -20.508 -34.867  0.00  0.00    +0.041 A 
ATOM     33  C   UNL A   1      43.193 -19.469 -34.244  0.00  0.00    -0.005 A 
ATOM     34  C   UNL A   1      42.554 -18.748 -33.229  0.00  0.00    +0.047 A 
ATOM     35  N   UNL A   1      41.277 -18.975 -32.847  0.00  0.00    -0.251 NA
ATOM     36  C   UNL A   1      40.594 -19.973 -33.419  0.00  0.00    +0.074 A 
ATOM     37  C   UNL A   1      39.300 -20.203 -32.976  0.00  0.00    -0.017 A 
ATOM     38  C   UNL A   1      38.533 -21.244 -33.491  0.00  0.00    +0.043 A 
ATOM     39 CL   UNL A   1      36.935 -21.502 -32.911  0.00  0.00    -0.083 Cl
ATOM     40  C   UNL A   1      39.057 -22.085 -34.461  0.00  0.00    -0.043 A 
ATOM     41  C   UNL A   1      40.354 -21.862 -34.920  0.00  0.00    -0.049 A 
ATOM     42  C   UNL A   1      41.140 -20.789 -34.429  0.00  0.00    +0.022 A 
ATOM     43  C   UNL A   1      43.231 -17.606 -32.515  0.00  0.00    -0.010 C 
ATOM     44  C   UNL A   1      44.750 -17.655 -32.604  0.00  0.00    -0.047 C 
ATOM     45  C   UNL A   1      45.168 -17.856 -34.051  0.00  0.00    -0.049 C 
ATOM     46  C   UNL A   1      44.640 -19.186 -34.582  0.00  0.00    -0.024 C 
ENDBRANCH  30  32
ENDBRANCH  29  30
ENDBRANCH  28  29
ENDBRANCH  27  28
ENDBRANCH  26  27
ENDBRANCH   3  26
TORSDOF 11
ENDMDL
MODEL 18
REMARK VINA RESULT:    -6.309     18.833     22.246
REMARK INTER + INTRA:         -15.164
REMARK INTER:                 -11.765
REMARK INTRA:                  -3.399
REMARK UNBOUND:                -4.799
REMARK  Name = cpd48.pdb
REMARK  13 active torsions:
REMARK  status: ('A' for Active; 'I' for Inactive)
REMARK    1  A    between atoms: C_1  and  C_2
REMARK    2  A    between atoms: C_6  and  N_7
REMARK    3  A    between atoms: N_7  and  C_8
REMARK    4  A    between atoms: C_13  and  C_14
REMARK    5  A    between atoms: N_16  and  C_17
REMARK    6  A    between atoms: C_17  and  C_18
REMARK    7  A    between atoms: N_20  and  C_21
REMARK    8  A    between atoms: C_21  and  C_22
REMARK    9  A    between atoms: C_22  and  C_23
REMARK   10  A    between atoms: C_23  and  C_24
REMARK   11  A    between atoms: C_24  and  N_25
REMARK   12  A    between atoms: N_25  and  C_26
REMARK   13  A    between atoms: C_41  and  C_42
REMARK                            x       y       z     vdW  Elec       q    Type
REMARK                         _______ _______ _______ _____ _____    ______ ____
ROOT
ATOM      1  C   UNL A   1      40.300 -16.971 -38.537  0.00  0.00    +0.230 C 
ATOM      2  O   UNL A   1      39.454 -16.846 -39.419  0.00  0.00    -0.274 OA
ATOM      3  N   UNL A   1      40.457 -18.125 -37.795  0.00  0.00    -0.314 N 
ATOM      4  H   UNL A   1      41.253 -18.221 -37.224  0.00  0.00    +0.000 HD
ENDROOT
BRANCH   1   5
ATOM      5  C   UNL A   1      41.340 -15.876 -38.257  0.00  0.00    +0.088 C 
BRANCH   5   8
ATOM      6  C   UNL A   1      43.641 -16.674 -38.605  0.00  0.00    +0.246 C 
ATOM      7  O   UNL A   1      43.566 -17.453 -37.661  0.00  0.00    -0.270 OA
ATOM      8  N   UNL A   1      42.558 -15.947 -39.060  0.00  0.00    -0.303 N 
ATOM      9  H   UNL A   1      42.607 -15.478 -39.924  0.00  0.00    +0.000 HD
BRANCH   6  15
ATOM     10  C   UNL A   1      45.597 -17.550 -39.914  0.00  0.00    +0.044 A 
ATOM     11  C   UNL A   1      46.816 -17.305 -40.565  0.00  0.00    -0.040 A 
ATOM     12  C   UNL A   1      47.361 -16.019 -40.626  0.00  0.00    -0.060 A 
ATOM     13  C   UNL A   1      46.693 -14.949 -40.037  0.00  0.00    -0.061 A 
ATOM     14  C   UNL A   1      45.481 -15.164 -39.381  0.00  0.00    -0.048 A 
ATOM     15  C   UNL A   1      44.936 -16.458 -39.309  0.00  0.00    +0.058 A 
BRANCH  10  16
ATOM     16  N   UNL A   1      45.071 -18.858 -39.837  0.00  0.00    -0.314 N 
ATOM     17  H   UNL A   1      44.571 -19.044 -39.011  0.00  0.00    +0.000 HD
BRANCH  16  23
ATOM     18  C   UNL A   1      46.993 -23.297 -41.133  0.00  0.00    -0.039 C 
ATOM     19  C   UNL A   1      46.072 -22.129 -41.362  0.00  0.00    -0.046 A 
ATOM     20  C   UNL A   1      45.263 -22.132 -42.506  0.00  0.00    -0.058 A 
ATOM     21  C   UNL A   1      44.399 -21.075 -42.767  0.00  0.00    -0.060 A 
ATOM     22  C   UNL A   1      44.339 -19.995 -41.888  0.00  0.00    -0.040 A 
ATOM     23  C   UNL A   1      45.134 -19.949 -40.735  0.00  0.00    +0.035 A 
ATOM     24  C   UNL A   1      45.985 -21.049 -40.449  0.00  0.00    -0.026 A 
ATOM     25  C   UNL A   1      46.833 -21.036 -39.197  0.00  0.00    -0.038 C 
ENDBRANCH  16  23
ENDBRANCH  10  16
ENDBRANCH   6  15
ENDBRANCH   5   8
ENDBRANCH   1   5
BRANCH   3  26
ATOM     26  C   UNL A   1      39.488 -19.198 -37.832  0.00  0.00    +0.012 C 
BRANCH  26  27
ATOM     27  C   UNL A   1      39.727 -20.249 -38.918  0.00  0.00    -0.036 C 
BRANCH  27  28
ATOM     28  C   UNL A   1      40.319 -21.574 -38.423  0.00  0.00    -0.036 C 
BRANCH  28  29
ATOM     29  C   UNL A   1      41.750 -21.450 -37.897  0.00  0.00    +0.009 C 
BRANCH  29  30
ATOM     30  N   UNL A   1      41.893 -22.026 -36.546  0.00  0.00    -0.343 N 
ATOM     31  H   UNL A   1      41.913 -22.997 -36.387  0.00  0.00    +0.000 HD
BRANCH  30  32
ATOM     32  C   UNL A   1      42.000 -21.078 -35.492  0.00  0.00    +0.041 A 
ATOM     33  C   UNL A   1      40.915 -20.863 -34.613  0.00  0.00    -0.005 A 
ATOM     34  C   UNL A   1      41.107 -19.970 -33.553  0.00  0.00    +0.047 A 
ATOM     35  N   UNL A   1      42.279 -19.338 -33.315  0.00  0.00    -0.251 NA
ATOM     36  C   UNL A   1      43.300 -19.521 -34.159  0.00  0.00    +0.074 A 
ATOM     37  C   UNL A   1      44.475 -18.828 -33.908  0.00  0.00    -0.017 A 
ATOM     38  C   UNL A   1      45.573 -18.933 -34.757  0.00  0.00    +0.043 A 
ATOM     39 CL   UNL A   1      47.010 -18.052 -34.416  0.00  0.00    -0.083 Cl
ATOM     40  C   UNL A   1      45.509 -19.734 -35.887  0.00  0.00    -0.043 A 
ATOM     41  C   UNL A   1      44.336 -20.441 -36.149  0.00  0.00    -0.049 A 
ATOM     42  C   UNL A   1      43.219 -20.371 -35.280  0.00  0.00    +0.022 A 
ATOM     43  C   UNL A   1      40.023 -19.686 -32.544  0.00  0.00    -0.010 C 
ATOM     44  C   UNL A   1      38.625 -20.009 -33.054  0.00  0.00    -0.047 C 
ATOM     45  C   UNL A   1      38.611 -21.408 -33.646  0.00  0.00    -0.049 C 
ATOM     46  C   UNL A   1      39.560 -21.495 -34.839  0.00  0.00    -0.024 C 
ENDBRANCH  30  32
ENDBRANCH  29  30
ENDBRANCH  28  29
ENDBRANCH  27  28
ENDBRANCH  26  27
ENDBRANCH   3  26
TORSDOF 11
ENDMDL
MODEL 19
REMARK VINA RESULT:    -6.255     20.055     23.280
REMARK INTER + INTRA:         -15.076
REMARK INTER:                 -11.052
REMARK INTRA:                  -4.024
REMARK UNBOUND:                -4.799
REMARK  Name = cpd48.pdb
REMARK  13 active torsions:
REMARK  status: ('A' for Active; 'I' for Inactive)
REMARK    1  A    between atoms: C_1  and  C_2
REMARK    2  A    between atoms: C_6  and  N_7
REMARK    3  A    between atoms: N_7  and  C_8
REMARK    4  A    between atoms: C_13  and  C_14
REMARK    5  A    between atoms: N_16  and  C_17
REMARK    6  A    between atoms: C_17  and  C_18
REMARK    7  A    between atoms: N_20  and  C_21
REMARK    8  A    between atoms: C_21  and  C_22
REMARK    9  A    between atoms: C_22  and  C_23
REMARK   10  A    between atoms: C_23  and  C_24
REMARK   11  A    between atoms: C_24  and  N_25
REMARK   12  A    between atoms: N_25  and  C_26
REMARK   13  A    between atoms: C_41  and  C_42
REMARK                            x       y       z     vdW  Elec       q    Type
REMARK                         _______ _______ _______ _____ _____    ______ ____
ROOT
ATOM      1  C   UNL A   1      45.277 -14.313 -39.850  0.00  0.00    +0.230 C 
ATOM      2  O   UNL A   1      45.400 -13.217 -40.391  0.00  0.00    -0.274 OA
ATOM      3  N   UNL A   1      45.345 -14.497 -38.483  0.00  0.00    -0.314 N 
ATOM      4  H   UNL A   1      45.075 -15.365 -38.104  0.00  0.00    +0.000 HD
ENDROOT
BRANCH   1   5
ATOM      5  C   UNL A   1      44.922 -15.573 -40.654  0.00  0.00    +0.088 C 
BRANCH   5   8
ATOM      6  C   UNL A   1      44.816 -17.656 -39.350  0.00  0.00    +0.246 C 
ATOM      7  O   UNL A   1      46.034 -17.694 -39.217  0.00  0.00    -0.270 OA
ATOM      8  N   UNL A   1      44.160 -16.587 -39.929  0.00  0.00    -0.303 N 
ATOM      9  H   UNL A   1      43.182 -16.508 -39.852  0.00  0.00    +0.000 HD
BRANCH   6  15
ATOM     10  C   UNL A   1      44.167 -20.081 -39.451  0.00  0.00    +0.044 A 
ATOM     11  C   UNL A   1      43.347 -21.127 -39.001  0.00  0.00    -0.040 A 
ATOM     12  C   UNL A   1      42.366 -20.913 -38.028  0.00  0.00    -0.060 A 
ATOM     13  C   UNL A   1      42.189 -19.645 -37.483  0.00  0.00    -0.061 A 
ATOM     14  C   UNL A   1      42.989 -18.586 -37.912  0.00  0.00    -0.048 A 
ATOM     15  C   UNL A   1      43.968 -18.796 -38.899  0.00  0.00    +0.058 A 
BRANCH  10  16
ATOM     16  N   UNL A   1      45.137 -20.305 -40.453  0.00  0.00    -0.314 N 
ATOM     17  H   UNL A   1      45.073 -19.692 -41.221  0.00  0.00    +0.000 HD
BRANCH  16  23
ATOM     18  C   UNL A   1      47.284 -24.155 -42.828  0.00  0.00    -0.039 C 
ATOM     19  C   UNL A   1      47.237 -23.132 -41.724  0.00  0.00    -0.046 A 
ATOM     20  C   UNL A   1      48.263 -23.134 -40.770  0.00  0.00    -0.058 A 
ATOM     21  C   UNL A   1      48.263 -22.214 -39.727  0.00  0.00    -0.060 A 
ATOM     22  C   UNL A   1      47.231 -21.285 -39.622  0.00  0.00    -0.040 A 
ATOM     23  C   UNL A   1      46.183 -21.251 -40.553  0.00  0.00    +0.035 A 
ATOM     24  C   UNL A   1      46.206 -22.164 -41.640  0.00  0.00    -0.026 A 
ATOM     25  C   UNL A   1      45.102 -22.131 -42.672  0.00  0.00    -0.038 C 
ENDBRANCH  16  23
ENDBRANCH  10  16
ENDBRANCH   6  15
ENDBRANCH   5   8
ENDBRANCH   1   5
BRANCH   3  26
ATOM     26  C   UNL A   1      45.802 -13.454 -37.591  0.00  0.00    +0.012 C 
BRANCH  26  27
ATOM     27  C   UNL A   1      45.344 -13.599 -36.138  0.00  0.00    -0.036 C 
BRANCH  27  28
ATOM     28  C   UNL A   1      43.833 -13.777 -35.946  0.00  0.00    -0.036 C 
BRANCH  28  29
ATOM     29  C   UNL A   1      43.405 -15.235 -35.772  0.00  0.00    +0.009 C 
BRANCH  29  30
ATOM     30  N   UNL A   1      43.999 -15.845 -34.567  0.00  0.00    -0.343 N 
ATOM     31  H   UNL A   1      44.315 -15.307 -33.805  0.00  0.00    +0.000 HD
BRANCH  30  32
ATOM     32  C   UNL A   1      44.084 -17.264 -34.585  0.00  0.00    +0.041 A 
ATOM     33  C   UNL A   1      45.238 -17.903 -35.088  0.00  0.00    -0.005 A 
ATOM     34  C   UNL A   1      45.291 -19.300 -35.013  0.00  0.00    +0.047 A 
ATOM     35  N   UNL A   1      44.315 -20.052 -34.457  0.00  0.00    -0.251 NA
ATOM     36  C   UNL A   1      43.210 -19.451 -34.000  0.00  0.00    +0.074 A 
ATOM     37  C   UNL A   1      42.212 -20.256 -33.471  0.00  0.00    -0.017 A 
ATOM     38  C   UNL A   1      41.016 -19.715 -33.007  0.00  0.00    +0.043 A 
ATOM     39 CL   UNL A   1      39.799 -20.746 -32.365  0.00  0.00    -0.083 Cl
ATOM     40  C   UNL A   1      40.794 -18.348 -33.076  0.00  0.00    -0.043 A 
ATOM     41  C   UNL A   1      41.791 -17.527 -33.601  0.00  0.00    -0.049 A 
ATOM     42  C   UNL A   1      43.027 -18.055 -34.049  0.00  0.00    +0.022 A 
ATOM     43  C   UNL A   1      46.486 -20.080 -35.500  0.00  0.00    -0.010 C 
ATOM     44  C   UNL A   1      47.333 -19.317 -36.509  0.00  0.00    -0.047 C 
ATOM     45  C   UNL A   1      47.639 -17.930 -35.969  0.00  0.00    -0.049 C 
ATOM     46  C   UNL A   1      46.350 -17.136 -35.769  0.00  0.00    -0.024 C 
ENDBRANCH  30  32
ENDBRANCH  29  30
ENDBRANCH  28  29
ENDBRANCH  27  28
ENDBRANCH  26  27
ENDBRANCH   3  26
TORSDOF 11
ENDMDL
MODEL 20
REMARK VINA RESULT:    -5.886     20.571     24.153
REMARK INTER + INTRA:         -14.469
REMARK INTER:                  -9.235
REMARK INTRA:                  -5.234
REMARK UNBOUND:                -4.799
REMARK  Name = cpd48.pdb
REMARK  13 active torsions:
REMARK  status: ('A' for Active; 'I' for Inactive)
REMARK    1  A    between atoms: C_1  and  C_2
REMARK    2  A    between atoms: C_6  and  N_7
REMARK    3  A    between atoms: N_7  and  C_8
REMARK    4  A    between atoms: C_13  and  C_14
REMARK    5  A    between atoms: N_16  and  C_17
REMARK    6  A    between atoms: C_17  and  C_18
REMARK    7  A    between atoms: N_20  and  C_21
REMARK    8  A    between atoms: C_21  and  C_22
REMARK    9  A    between atoms: C_22  and  C_23
REMARK   10  A    between atoms: C_23  and  C_24
REMARK   11  A    between atoms: C_24  and  N_25
REMARK   12  A    between atoms: N_25  and  C_26
REMARK   13  A    between atoms: C_41  and  C_42
REMARK                            x       y       z     vdW  Elec       q    Type
REMARK                         _______ _______ _______ _____ _____    ______ ____
ROOT
ATOM      1  C   UNL A   1      45.869 -13.515 -39.399  0.00  0.00    +0.230 C 
ATOM      2  O   UNL A   1      45.430 -12.389 -39.178  0.00  0.00    -0.274 OA
ATOM      3  N   UNL A   1      45.633 -14.205 -40.573  0.00  0.00    -0.314 N 
ATOM      4  H   UNL A   1      46.146 -15.025 -40.756  0.00  0.00    +0.000 HD
ENDROOT
BRANCH   1   5
ATOM      5  C   UNL A   1      46.822 -14.215 -38.420  0.00  0.00    +0.088 C 
BRANCH   5   8
ATOM      6  C   UNL A   1      46.977 -16.074 -36.816  0.00  0.00    +0.246 C 
ATOM      7  O   UNL A   1      48.197 -15.982 -36.751  0.00  0.00    -0.270 OA
ATOM      8  N   UNL A   1      46.195 -15.169 -37.507  0.00  0.00    -0.303 N 
ATOM      9  H   UNL A   1      45.219 -15.166 -37.385  0.00  0.00    +0.000 HD
BRANCH   6  15
ATOM     10  C   UNL A   1      46.099 -18.428 -36.831  0.00  0.00    +0.044 A 
ATOM     11  C   UNL A   1      45.420 -19.463 -36.171  0.00  0.00    -0.040 A 
ATOM     12  C   UNL A   1      44.930 -19.297 -34.872  0.00  0.00    -0.060 A 
ATOM     13  C   UNL A   1      45.112 -18.089 -34.207  0.00  0.00    -0.061 A 
ATOM     14  C   UNL A   1      45.781 -17.041 -34.839  0.00  0.00    -0.048 A 
ATOM     15  C   UNL A   1      46.265 -17.201 -36.150  0.00  0.00    +0.058 A 
BRANCH  10  16
ATOM     16  N   UNL A   1      46.566 -18.600 -38.153  0.00  0.00    -0.314 N 
ATOM     17  H   UNL A   1      47.173 -17.889 -38.462  0.00  0.00    +0.000 HD
BRANCH  16  23
ATOM     18  C   UNL A   1      44.999 -19.953 -42.712  0.00  0.00    -0.039 C 
ATOM     19  C   UNL A   1      45.558 -20.268 -41.351  0.00  0.00    -0.046 A 
ATOM     20  C   UNL A   1      45.831 -21.606 -41.034  0.00  0.00    -0.058 A 
ATOM     21  C   UNL A   1      46.343 -21.949 -39.789  0.00  0.00    -0.060 A 
ATOM     22  C   UNL A   1      46.581 -20.959 -38.839  0.00  0.00    -0.040 A 
ATOM     23  C   UNL A   1      46.318 -19.609 -39.112  0.00  0.00    +0.035 A 
ATOM     24  C   UNL A   1      45.835 -19.255 -40.399  0.00  0.00    -0.026 A 
ATOM     25  C   UNL A   1      45.569 -17.803 -40.728  0.00  0.00    -0.038 C 
ENDBRANCH  16  23
ENDBRANCH  10  16
ENDBRANCH   6  15
ENDBRANCH   5   8
ENDBRANCH   1   5
BRANCH   3  26
ATOM     26  C   UNL A   1      44.656 -13.758 -41.541  0.00  0.00    +0.012 C 
BRANCH  26  27
ATOM     27  C   UNL A   1      43.330 -14.521 -41.521  0.00  0.00    -0.036 C 
BRANCH  27  28
ATOM     28  C   UNL A   1      42.591 -14.509 -40.178  0.00  0.00    -0.036 C 
BRANCH  28  29
ATOM     29  C   UNL A   1      42.184 -15.900 -39.689  0.00  0.00    +0.009 C 
BRANCH  29  30
ATOM     30  N   UNL A   1      43.152 -16.448 -38.718  0.00  0.00    -0.343 N 
ATOM     31  H   UNL A   1      44.112 -16.234 -38.754  0.00  0.00    +0.000 HD
BRANCH  30  32
ATOM     32  C   UNL A   1      42.598 -17.306 -37.729  0.00  0.00    +0.041 A 
ATOM     33  C   UNL A   1      42.303 -16.811 -36.440  0.00  0.00    -0.005 A 
ATOM     34  C   UNL A   1      41.694 -17.686 -35.533  0.00  0.00    +0.047 A 
ATOM     35  N   UNL A   1      41.348 -18.956 -35.843  0.00  0.00    -0.251 NA
ATOM     36  C   UNL A   1      41.648 -19.435 -37.055  0.00  0.00    +0.074 A 
ATOM     37  C   UNL A   1      41.314 -20.754 -37.326  0.00  0.00    -0.017 A 
ATOM     38  C   UNL A   1      41.623 -21.341 -38.550  0.00  0.00    +0.043 A 
ATOM     39 CL   UNL A   1      41.200 -22.982 -38.846  0.00  0.00    -0.083 Cl
ATOM     40  C   UNL A   1      42.286 -20.614 -39.527  0.00  0.00    -0.043 A 
ATOM     41  C   UNL A   1      42.622 -19.286 -39.270  0.00  0.00    -0.049 A 
ATOM     42  C   UNL A   1      42.289 -18.661 -38.043  0.00  0.00    +0.022 A 
ATOM     43  C   UNL A   1      41.315 -17.253 -34.140  0.00  0.00    -0.010 C 
ATOM     44  C   UNL A   1      42.092 -16.038 -33.654  0.00  0.00    -0.047 C 
ATOM     45  C   UNL A   1      42.040 -14.946 -34.710  0.00  0.00    -0.049 C 
ATOM     46  C   UNL A   1      42.701 -15.419 -36.003  0.00  0.00    -0.024 C 
ENDBRANCH  30  32
ENDBRANCH  29  30
ENDBRANCH  28  29
ENDBRANCH  27  28
ENDBRANCH  26  27
ENDBRANCH   3  26
TORSDOF 11
ENDMDL
