@<TRIPOS>MOLECULE
*****
 27 30 0 0 0
SMALL
GASTEIGER

@<TRIPOS>ATOM
      1 C           0.0000   -1.0000    0.0000 C.ar    1  UNL1       -0.0000
      2 C          -0.8660   -1.5000    0.0000 C.ar    1  UNL1       -0.0003
      3 C          -1.7321   -1.0000    0.0000 C.ar    1  UNL1       -0.0029
      4 C          -1.7321   -0.0000    0.0000 C.ar    1  UNL1       -0.0061
      5 C          -2.5981    0.5000    0.0000 C.3     1  UNL1        0.0991
      6 N          -3.4641   -0.0000    0.0000 N.3     1  UNL1       -0.2690
      7 C          -3.4641   -1.0000    0.0000 C.3     1  UNL1        0.0724
      8 C          -4.3301   -1.5000    0.0000 C.3     1  UNL1        0.0191
      9 C          -5.1962   -1.0000    0.0000 C.3     1  UNL1        0.0244
     10 C          -6.0622   -1.5000    0.0000 C.3     1  UNL1        0.1139
     11 N          -6.0622   -2.5000    0.0000 N.pl3   1  UNL1       -0.2189
     12 C          -6.9282   -3.0000    0.0000 C.ar    1  UNL1        0.1693
     13 C          -6.9282   -4.0000    0.0000 C.ar    1  UNL1        0.0392
     14 C          -7.7942   -4.5000    0.0000 C.ar    1  UNL1        0.0239
     15 C          -8.6603   -4.0000    0.0000 C.ar    1  UNL1        0.1030
     16 C          -9.5263   -4.5000    0.0000 C.ar    1  UNL1        0.0194
     17 C          -9.5263   -5.5000    0.0000 C.ar    1  UNL1        0.0016
     18 C         -10.3923   -6.0000    0.0000 C.ar    1  UNL1        0.0000
     19 C         -11.2583   -5.5000    0.0000 C.ar    1  UNL1        0.0000
     20 C         -11.2583   -4.5000    0.0000 C.ar    1  UNL1        0.0000
     21 C         -10.3923   -4.0000    0.0000 C.ar    1  UNL1        0.0016
     22 N          -8.6603   -3.0000    0.0000 N.ar    1  UNL1       -0.1467
     23 N          -7.7942   -2.5000    0.0000 N.ar    1  UNL1       -0.1314
     24 C          -5.1962   -0.0000    0.0000 C.3     1  UNL1        0.0191
     25 C          -4.3301    0.5000    0.0000 C.3     1  UNL1        0.0724
     26 C          -0.8660    0.5000    0.0000 C.ar    1  UNL1       -0.0029
     27 C          -0.0000   -0.0000    0.0000 C.ar    1  UNL1       -0.0003
@<TRIPOS>BOND
     1     1     2   ar
     2     2     3   ar
     3     3     4   ar
     4     4     5    1
     5     5     6    1
     6     6     7    1
     7     7     8    1
     8     8     9    1
     9     9    10    1
    10    10    11    1
    11    11    12    1
    12    12    13   ar
    13    13    14   ar
    14    14    15   ar
    15    15    16    1
    16    16    17   ar
    17    17    18   ar
    18    18    19   ar
    19    19    20   ar
    20    20    21   ar
    21    16    21   ar
    22    15    22   ar
    23    22    23   ar
    24    12    23   ar
    25     9    24    1
    26    24    25    1
    27     6    25    1
    28     4    26   ar
    29    26    27   ar
    30     1    27   ar
