MODEL 1
REMARK VINA RESULT:    -8.201      0.000      0.000
REMARK INTER + INTRA:         -11.900
REMARK INTER:                 -11.077
REMARK INTRA:                  -0.822
REMARK UNBOUND:                -0.822
REMARK  Name = cpd271.pdb
REMARK  6 active torsions:
REMARK  status: ('A' for Active; 'I' for Inactive)
REMARK    1  A    between atoms: C_4  and  C_5
REMARK    2  A    between atoms: C_5  and  N_6
REMARK    3  A    between atoms: C_9  and  C_10
REMARK    4  A    between atoms: C_10  and  N_11
REMARK    5  A    between atoms: N_11  and  C_12
REMARK    6  A    between atoms: C_15  and  C_16
REMARK                            x       y       z     vdW  Elec       q    Type
REMARK                         _______ _______ _______ _____ _____    ______ ____
ROOT
ATOM      1  C   UNL     1      34.855 -35.507 -30.956  0.00  0.00    +0.013 C 
ENDROOT
BRANCH   1   5
ATOM      2  N   UNL     1      32.230 -32.547 -29.906  0.00  0.00    -0.298 N 
ATOM      3  C   UNL     1      33.558 -32.459 -30.535  0.00  0.00    -0.000 C 
ATOM      4  C   UNL     1      34.626 -33.234 -29.766  0.00  0.00    -0.036 C 
ATOM      5  C   UNL     1      34.307 -34.742 -29.734  0.00  0.00    -0.023 C 
ATOM      6  C   UNL     1      32.783 -34.974 -29.642  0.00  0.00    -0.036 C 
ATOM      7  C   UNL     1      32.044 -33.755 -29.091  0.00  0.00    -0.000 C 
ATOM      8  H   UNL     1      32.181 -31.765 -29.253  0.00  0.00    +0.000 HD
BRANCH   2   9
ATOM      9  C   UNL     1      31.147 -32.376 -30.890  0.00  0.00    +0.024 C 
BRANCH   9  13
ATOM     10  C   UNL     1      28.828 -28.779 -30.290  0.00  0.00    -0.062 A 
ATOM     11  C   UNL     1      28.979 -29.305 -31.572  0.00  0.00    -0.061 A 
ATOM     12  C   UNL     1      29.724 -30.468 -31.767  0.00  0.00    -0.057 A 
ATOM     13  C   UNL     1      30.328 -31.118 -30.680  0.00  0.00    -0.033 A 
ATOM     14  C   UNL     1      30.168 -30.580 -29.396  0.00  0.00    -0.057 A 
ATOM     15  C   UNL     1      29.422 -29.416 -29.202  0.00  0.00    -0.061 A 
ENDBRANCH   9  13
ENDBRANCH   2   9
ENDBRANCH   1   5
BRANCH   1  16
ATOM     16  N   UNL     1      35.914 -34.794 -31.666  0.00  0.00    -0.327 N 
ATOM     17  H   UNL     1      35.722 -33.994 -32.207  0.00  0.00    +0.000 HD
BRANCH  16  18
ATOM     18  C   UNL     1      37.216 -35.299 -31.542  0.00  0.00    +0.141 A 
ATOM     19  C   UNL     1      37.390 -36.508 -30.885  0.00  0.00    -0.018 A 
ATOM     20  C   UNL     1      38.673 -37.022 -30.695  0.00  0.00    -0.031 A 
ATOM     21  C   UNL     1      39.770 -36.311 -31.164  0.00  0.00    +0.093 A 
ATOM     22  N   UNL     1      39.575 -35.128 -31.784  0.00  0.00    -0.147 NA
ATOM     23  N   UNL     1      38.299 -34.620 -31.963  0.00  0.00    -0.134 NA
BRANCH  21  24
ATOM     24  C   UNL     1      41.167 -36.758 -31.008  0.00  0.00    +0.002 A 
ATOM     25  C   UNL     1      42.254 -35.868 -31.109  0.00  0.00    -0.053 A 
ATOM     26  C   UNL     1      43.574 -36.311 -30.973  0.00  0.00    -0.061 A 
ATOM     27  C   UNL     1      43.839 -37.654 -30.727  0.00  0.00    -0.062 A 
ATOM     28  C   UNL     1      42.784 -38.554 -30.612  0.00  0.00    -0.061 A 
ATOM     29  C   UNL     1      41.466 -38.110 -30.749  0.00  0.00    -0.053 A 
ENDBRANCH  21  24
ENDBRANCH  16  18
ENDBRANCH   1  16
TORSDOF 6
ENDMDL
MODEL 2
REMARK VINA RESULT:    -8.075     24.850     27.331
REMARK INTER + INTRA:         -11.730
REMARK INTER:                 -10.455
REMARK INTRA:                  -1.275
REMARK UNBOUND:                -0.822
REMARK  Name = cpd271.pdb
REMARK  6 active torsions:
REMARK  status: ('A' for Active; 'I' for Inactive)
REMARK    1  A    between atoms: C_4  and  C_5
REMARK    2  A    between atoms: C_5  and  N_6
REMARK    3  A    between atoms: C_9  and  C_10
REMARK    4  A    between atoms: C_10  and  N_11
REMARK    5  A    between atoms: N_11  and  C_12
REMARK    6  A    between atoms: C_15  and  C_16
REMARK                            x       y       z     vdW  Elec       q    Type
REMARK                         _______ _______ _______ _____ _____    ______ ____
ROOT
ATOM      1  C   UNL     1      45.244 -37.333 -52.720  0.00  0.00    +0.013 C 
ENDROOT
BRANCH   1   5
ATOM      2  N   UNL     1      45.625 -37.250 -56.795  0.00  0.00    -0.298 N 
ATOM      3  C   UNL     1      44.573 -36.695 -55.929  0.00  0.00    -0.000 C 
ATOM      4  C   UNL     1      44.013 -37.724 -54.949  0.00  0.00    -0.036 C 
ATOM      5  C   UNL     1      45.102 -38.218 -53.975  0.00  0.00    -0.023 C 
ATOM      6  C   UNL     1      46.471 -38.300 -54.686  0.00  0.00    -0.036 C 
ATOM      7  C   UNL     1      46.330 -38.396 -56.204  0.00  0.00    -0.000 C 
ATOM      8  H   UNL     1      45.143 -37.617 -57.615  0.00  0.00    +0.000 HD
BRANCH   2   9
ATOM      9  C   UNL     1      46.560 -36.208 -57.254  0.00  0.00    +0.024 C 
BRANCH   9  13
ATOM     10  C   UNL     1      44.617 -32.654 -58.762  0.00  0.00    -0.062 A 
ATOM     11  C   UNL     1      44.984 -33.672 -59.640  0.00  0.00    -0.061 A 
ATOM     12  C   UNL     1      45.608 -34.823 -59.155  0.00  0.00    -0.057 A 
ATOM     13  C   UNL     1      45.872 -34.965 -57.784  0.00  0.00    -0.033 A 
ATOM     14  C   UNL     1      45.497 -33.934 -56.912  0.00  0.00    -0.057 A 
ATOM     15  C   UNL     1      44.873 -32.784 -57.399  0.00  0.00    -0.061 A 
ENDBRANCH   9  13
ENDBRANCH   2   9
ENDBRANCH   1   5
BRANCH   1  16
ATOM     16  N   UNL     1      46.580 -36.764 -52.555  0.00  0.00    -0.327 N 
ATOM     17  H   UNL     1      47.351 -37.326 -52.312  0.00  0.00    +0.000 HD
BRANCH  16  18
ATOM     18  C   UNL     1      46.713 -35.383 -52.755  0.00  0.00    +0.141 A 
ATOM     19  C   UNL     1      45.578 -34.654 -53.076  0.00  0.00    -0.018 A 
ATOM     20  C   UNL     1      45.675 -33.286 -53.333  0.00  0.00    -0.031 A 
ATOM     21  C   UNL     1      46.914 -32.666 -53.272  0.00  0.00    +0.093 A 
ATOM     22  N   UNL     1      48.008 -33.401 -52.976  0.00  0.00    -0.147 NA
ATOM     23  N   UNL     1      47.906 -34.760 -52.729  0.00  0.00    -0.134 NA
BRANCH  21  24
ATOM     24  C   UNL     1      47.130 -31.231 -53.536  0.00  0.00    +0.002 A 
ATOM     25  C   UNL     1      46.679 -30.231 -52.651  0.00  0.00    -0.053 A 
ATOM     26  C   UNL     1      46.879 -28.873 -52.923  0.00  0.00    -0.061 A 
ATOM     27  C   UNL     1      47.540 -28.482 -54.083  0.00  0.00    -0.062 A 
ATOM     28  C   UNL     1      48.004 -29.448 -54.969  0.00  0.00    -0.061 A 
ATOM     29  C   UNL     1      47.803 -30.804 -54.696  0.00  0.00    -0.053 A 
ENDBRANCH  21  24
ENDBRANCH  16  18
ENDBRANCH   1  16
TORSDOF 6
ENDMDL
MODEL 3
REMARK VINA RESULT:    -7.864      1.199      1.820
REMARK INTER + INTRA:         -11.445
REMARK INTER:                 -10.689
REMARK INTRA:                  -0.756
REMARK UNBOUND:                -0.822
REMARK  Name = cpd271.pdb
REMARK  6 active torsions:
REMARK  status: ('A' for Active; 'I' for Inactive)
REMARK    1  A    between atoms: C_4  and  C_5
REMARK    2  A    between atoms: C_5  and  N_6
REMARK    3  A    between atoms: C_9  and  C_10
REMARK    4  A    between atoms: C_10  and  N_11
REMARK    5  A    between atoms: N_11  and  C_12
REMARK    6  A    between atoms: C_15  and  C_16
REMARK                            x       y       z     vdW  Elec       q    Type
REMARK                         _______ _______ _______ _____ _____    ______ ____
ROOT
ATOM      1  C   UNL     1      34.556 -34.672 -29.749  0.00  0.00    +0.013 C 
ENDROOT
BRANCH   1   5
ATOM      2  N   UNL     1      31.801 -31.917 -31.001  0.00  0.00    -0.298 N 
ATOM      3  C   UNL     1      31.971 -33.328 -31.380  0.00  0.00    -0.000 C 
ATOM      4  C   UNL     1      33.399 -33.654 -31.812  0.00  0.00    -0.036 C 
ATOM      5  C   UNL     1      34.396 -33.436 -30.657  0.00  0.00    -0.023 C 
ATOM      6  C   UNL     1      33.969 -32.231 -29.790  0.00  0.00    -0.036 C 
ATOM      7  C   UNL     1      33.041 -31.277 -30.541  0.00  0.00    -0.000 C 
ATOM      8  H   UNL     1      31.543 -31.429 -31.858  0.00  0.00    +0.000 HD
BRANCH   2   9
ATOM      9  C   UNL     1      30.701 -31.738 -30.037  0.00  0.00    +0.024 C 
BRANCH   9  13
ATOM     10  C   UNL     1      27.324 -29.570 -31.640  0.00  0.00    -0.062 A 
ATOM     11  C   UNL     1      27.457 -29.732 -30.262  0.00  0.00    -0.061 A 
ATOM     12  C   UNL     1      28.549 -30.428 -29.742  0.00  0.00    -0.057 A 
ATOM     13  C   UNL     1      29.520 -30.971 -30.597  0.00  0.00    -0.033 A 
ATOM     14  C   UNL     1      29.375 -30.801 -31.981  0.00  0.00    -0.057 A 
ATOM     15  C   UNL     1      28.282 -30.103 -32.499  0.00  0.00    -0.061 A 
ENDBRANCH   9  13
ENDBRANCH   2   9
ENDBRANCH   1   5
BRANCH   1  16
ATOM     16  N   UNL     1      34.939 -35.883 -30.472  0.00  0.00    -0.327 N 
ATOM     17  H   UNL     1      34.263 -36.497 -30.841  0.00  0.00    +0.000 HD
BRANCH  16  18
ATOM     18  C   UNL     1      36.310 -36.133 -30.616  0.00  0.00    +0.141 A 
ATOM     19  C   UNL     1      36.939 -36.911 -29.656  0.00  0.00    -0.018 A 
ATOM     20  C   UNL     1      38.313 -37.142 -29.733  0.00  0.00    -0.031 A 
ATOM     21  C   UNL     1      39.043 -36.582 -30.773  0.00  0.00    +0.093 A 
ATOM     22  N   UNL     1      38.410 -35.813 -31.685  0.00  0.00    -0.147 NA
ATOM     23  N   UNL     1      37.047 -35.582 -31.598  0.00  0.00    -0.134 NA
BRANCH  21  24
ATOM     24  C   UNL     1      40.498 -36.755 -30.943  0.00  0.00    +0.002 A 
ATOM     25  C   UNL     1      41.312 -35.746 -31.494  0.00  0.00    -0.053 A 
ATOM     26  C   UNL     1      42.688 -35.930 -31.661  0.00  0.00    -0.061 A 
ATOM     27  C   UNL     1      43.285 -37.127 -31.277  0.00  0.00    -0.062 A 
ATOM     28  C   UNL     1      42.507 -38.137 -30.720  0.00  0.00    -0.061 A 
ATOM     29  C   UNL     1      41.131 -37.950 -30.555  0.00  0.00    -0.053 A 
ENDBRANCH  21  24
ENDBRANCH  16  18
ENDBRANCH   1  16
TORSDOF 6
ENDMDL
MODEL 4
REMARK VINA RESULT:    -7.803      5.223      7.084
REMARK INTER + INTRA:         -11.363
REMARK INTER:                 -10.637
REMARK INTRA:                  -0.727
REMARK UNBOUND:                -0.822
REMARK  Name = cpd271.pdb
REMARK  6 active torsions:
REMARK  status: ('A' for Active; 'I' for Inactive)
REMARK    1  A    between atoms: C_4  and  C_5
REMARK    2  A    between atoms: C_5  and  N_6
REMARK    3  A    between atoms: C_9  and  C_10
REMARK    4  A    between atoms: C_10  and  N_11
REMARK    5  A    between atoms: N_11  and  C_12
REMARK    6  A    between atoms: C_15  and  C_16
REMARK                            x       y       z     vdW  Elec       q    Type
REMARK                         _______ _______ _______ _____ _____    ______ ____
ROOT
ATOM      1  C   UNL     1      34.255 -37.307 -27.025  0.00  0.00    +0.013 C 
ENDROOT
BRANCH   1   5
ATOM      2  N   UNL     1      30.946 -38.297 -24.828  0.00  0.00    -0.298 N 
ATOM      3  C   UNL     1      32.244 -38.981 -24.951  0.00  0.00    -0.000 C 
ATOM      4  C   UNL     1      32.648 -39.221 -26.403  0.00  0.00    -0.036 C 
ATOM      5  C   UNL     1      32.834 -37.891 -27.160  0.00  0.00    -0.023 C 
ATOM      6  C   UNL     1      31.814 -36.840 -26.669  0.00  0.00    -0.036 C 
ATOM      7  C   UNL     1      30.599 -37.480 -25.999  0.00  0.00    -0.000 C 
ATOM      8  H   UNL     1      30.246 -39.037 -24.793  0.00  0.00    +0.000 HD
BRANCH   2   9
ATOM      9  C   UNL     1      30.849 -37.529 -23.575  0.00  0.00    +0.024 C 
BRANCH   9  13
ATOM     10  C   UNL     1      34.602 -37.139 -21.467  0.00  0.00    -0.062 A 
ATOM     11  C   UNL     1      33.646 -38.051 -21.024  0.00  0.00    -0.061 A 
ATOM     12  C   UNL     1      32.435 -38.182 -21.706  0.00  0.00    -0.057 A 
ATOM     13  C   UNL     1      32.168 -37.398 -22.838  0.00  0.00    -0.033 A 
ATOM     14  C   UNL     1      33.137 -36.485 -23.274  0.00  0.00    -0.057 A 
ATOM     15  C   UNL     1      34.349 -36.356 -22.591  0.00  0.00    -0.061 A 
ENDBRANCH   9  13
ENDBRANCH   2   9
ENDBRANCH   1   5
BRANCH   1  16
ATOM     16  N   UNL     1      35.310 -38.316 -27.084  0.00  0.00    -0.327 N 
ATOM     17  H   UNL     1      35.234 -39.169 -26.597  0.00  0.00    +0.000 HD
BRANCH  16  18
ATOM     18  C   UNL     1      36.435 -38.017 -27.865  0.00  0.00    +0.141 A 
ATOM     19  C   UNL     1      36.368 -36.927 -28.720  0.00  0.00    -0.018 A 
ATOM     20  C   UNL     1      37.447 -36.624 -29.552  0.00  0.00    -0.031 A 
ATOM     21  C   UNL     1      38.580 -37.424 -29.520  0.00  0.00    +0.093 A 
ATOM     22  N   UNL     1      38.614 -38.491 -28.692  0.00  0.00    -0.147 NA
ATOM     23  N   UNL     1      37.536 -38.790 -27.874  0.00  0.00    -0.134 NA
BRANCH  21  24
ATOM     24  C   UNL     1      39.770 -37.199 -30.362  0.00  0.00    +0.002 A 
ATOM     25  C   UNL     1      39.785 -36.244 -31.398  0.00  0.00    -0.053 A 
ATOM     26  C   UNL     1      40.917 -36.053 -32.196  0.00  0.00    -0.061 A 
ATOM     27  C   UNL     1      42.064 -36.808 -31.975  0.00  0.00    -0.062 A 
ATOM     28  C   UNL     1      42.082 -37.751 -30.952  0.00  0.00    -0.061 A 
ATOM     29  C   UNL     1      40.949 -37.941 -30.156  0.00  0.00    -0.053 A 
ENDBRANCH  21  24
ENDBRANCH  16  18
ENDBRANCH   1  16
TORSDOF 6
ENDMDL
MODEL 5
REMARK VINA RESULT:    -7.761      2.914      4.103
REMARK INTER + INTRA:         -11.305
REMARK INTER:                 -10.125
REMARK INTRA:                  -1.180
REMARK UNBOUND:                -0.822
REMARK  Name = cpd271.pdb
REMARK  6 active torsions:
REMARK  status: ('A' for Active; 'I' for Inactive)
REMARK    1  A    between atoms: C_4  and  C_5
REMARK    2  A    between atoms: C_5  and  N_6
REMARK    3  A    between atoms: C_9  and  C_10
REMARK    4  A    between atoms: C_10  and  N_11
REMARK    5  A    between atoms: N_11  and  C_12
REMARK    6  A    between atoms: C_15  and  C_16
REMARK                            x       y       z     vdW  Elec       q    Type
REMARK                         _______ _______ _______ _____ _____    ______ ____
ROOT
ATOM      1  C   UNL     1      34.246 -37.274 -27.356  0.00  0.00    +0.013 C 
ENDROOT
BRANCH   1   5
ATOM      2  N   UNL     1      31.063 -36.268 -29.724  0.00  0.00    -0.298 N 
ATOM      3  C   UNL     1      31.473 -35.743 -28.411  0.00  0.00    -0.000 C 
ATOM      4  C   UNL     1      31.706 -36.848 -27.383  0.00  0.00    -0.036 C 
ATOM      5  C   UNL     1      32.861 -37.776 -27.811  0.00  0.00    -0.023 C 
ATOM      6  C   UNL     1      32.874 -37.954 -29.346  0.00  0.00    -0.036 C 
ATOM      7  C   UNL     1      31.517 -37.642 -29.976  0.00  0.00    -0.000 C 
ATOM      8  H   UNL     1      30.045 -36.316 -29.696  0.00  0.00    +0.000 HD
BRANCH   2   9
ATOM      9  C   UNL     1      31.438 -35.356 -30.818  0.00  0.00    +0.024 C 
BRANCH   9  13
ATOM     10  C   UNL     1      34.603 -32.597 -29.790  0.00  0.00    -0.062 A 
ATOM     11  C   UNL     1      33.274 -32.178 -29.754  0.00  0.00    -0.061 A 
ATOM     12  C   UNL     1      32.251 -33.068 -30.081  0.00  0.00    -0.057 A 
ATOM     13  C   UNL     1      32.547 -34.389 -30.451  0.00  0.00    -0.033 A 
ATOM     14  C   UNL     1      33.887 -34.798 -30.483  0.00  0.00    -0.057 A 
ATOM     15  C   UNL     1      34.910 -33.907 -30.154  0.00  0.00    -0.061 A 
ENDBRANCH   9  13
ENDBRANCH   2   9
ENDBRANCH   1   5
BRANCH   1  16
ATOM     16  N   UNL     1      35.287 -38.299 -27.414  0.00  0.00    -0.327 N 
ATOM     17  H   UNL     1      35.165 -39.180 -26.992  0.00  0.00    +0.000 HD
BRANCH  16  18
ATOM     18  C   UNL     1      36.466 -37.971 -28.097  0.00  0.00    +0.141 A 
ATOM     19  C   UNL     1      36.386 -37.070 -29.148  0.00  0.00    -0.018 A 
ATOM     20  C   UNL     1      37.526 -36.755 -29.888  0.00  0.00    -0.031 A 
ATOM     21  C   UNL     1      38.736 -37.354 -29.566  0.00  0.00    +0.093 A 
ATOM     22  N   UNL     1      38.785 -38.243 -28.550  0.00  0.00    -0.147 NA
ATOM     23  N   UNL     1      37.647 -38.557 -27.825  0.00  0.00    -0.134 NA
BRANCH  21  24
ATOM     24  C   UNL     1      39.997 -37.100 -30.287  0.00  0.00    +0.002 A 
ATOM     25  C   UNL     1      40.157 -35.999 -31.152  0.00  0.00    -0.053 A 
ATOM     26  C   UNL     1      41.355 -35.780 -31.839  0.00  0.00    -0.061 A 
ATOM     27  C   UNL     1      42.426 -36.653 -31.674  0.00  0.00    -0.062 A 
ATOM     28  C   UNL     1      42.300 -37.742 -30.819  0.00  0.00    -0.061 A 
ATOM     29  C   UNL     1      41.101 -37.960 -30.134  0.00  0.00    -0.053 A 
ENDBRANCH  21  24
ENDBRANCH  16  18
ENDBRANCH   1  16
TORSDOF 6
ENDMDL
MODEL 6
REMARK VINA RESULT:    -7.754     16.585     19.585
REMARK INTER + INTRA:         -11.297
REMARK INTER:                 -10.316
REMARK INTRA:                  -0.981
REMARK UNBOUND:                -0.822
REMARK  Name = cpd271.pdb
REMARK  6 active torsions:
REMARK  status: ('A' for Active; 'I' for Inactive)
REMARK    1  A    between atoms: C_4  and  C_5
REMARK    2  A    between atoms: C_5  and  N_6
REMARK    3  A    between atoms: C_9  and  C_10
REMARK    4  A    between atoms: C_10  and  N_11
REMARK    5  A    between atoms: N_11  and  C_12
REMARK    6  A    between atoms: C_15  and  C_16
REMARK                            x       y       z     vdW  Elec       q    Type
REMARK                         _______ _______ _______ _____ _____    ______ ____
ROOT
ATOM      1  C   UNL     1      45.623 -17.469 -34.465  0.00  0.00    +0.013 C 
ENDROOT
BRANCH   1   5
ATOM      2  N   UNL     1      47.002 -19.884 -37.469  0.00  0.00    -0.298 N 
ATOM      3  C   UNL     1      46.589 -20.218 -36.096  0.00  0.00    -0.000 C 
ATOM      4  C   UNL     1      47.282 -19.352 -35.046  0.00  0.00    -0.036 C 
ATOM      5  C   UNL     1      46.912 -17.865 -35.215  0.00  0.00    -0.023 C 
ATOM      6  C   UNL     1      46.748 -17.513 -36.710  0.00  0.00    -0.036 C 
ATOM      7  C   UNL     1      47.474 -18.501 -37.621  0.00  0.00    -0.000 C 
ATOM      8  H   UNL     1      47.811 -20.473 -37.665  0.00  0.00    +0.000 HD
BRANCH   2   9
ATOM      9  C   UNL     1      45.956 -20.219 -38.450  0.00  0.00    +0.024 C 
BRANCH   9  13
ATOM     10  C   UNL     1      47.253 -23.015 -41.480  0.00  0.00    -0.062 A 
ATOM     11  C   UNL     1      48.051 -22.780 -40.361  0.00  0.00    -0.061 A 
ATOM     12  C   UNL     1      47.632 -21.881 -39.380  0.00  0.00    -0.057 A 
ATOM     13  C   UNL     1      46.409 -21.205 -39.509  0.00  0.00    -0.033 A 
ATOM     14  C   UNL     1      45.615 -21.450 -40.638  0.00  0.00    -0.057 A 
ATOM     15  C   UNL     1      46.035 -22.351 -41.619  0.00  0.00    -0.061 A 
ENDBRANCH   9  13
ENDBRANCH   2   9
ENDBRANCH   1   5
BRANCH   1  16
ATOM     16  N   UNL     1      45.333 -18.319 -33.312  0.00  0.00    -0.327 N 
ATOM     17  H   UNL     1      46.027 -18.541 -32.650  0.00  0.00    +0.000 HD
BRANCH  16  18
ATOM     18  C   UNL     1      44.023 -18.802 -33.191  0.00  0.00    +0.141 A 
ATOM     19  C   UNL     1      43.685 -19.958 -33.878  0.00  0.00    -0.018 A 
ATOM     20  C   UNL     1      42.379 -20.446 -33.826  0.00  0.00    -0.031 A 
ATOM     21  C   UNL     1      41.424 -19.762 -33.088  0.00  0.00    +0.093 A 
ATOM     22  N   UNL     1      41.773 -18.628 -32.442  0.00  0.00    -0.147 NA
ATOM     23  N   UNL     1      43.070 -18.146 -32.504  0.00  0.00    -0.134 NA
BRANCH  21  24
ATOM     24  C   UNL     1      40.015 -20.185 -32.974  0.00  0.00    +0.002 A 
ATOM     25  C   UNL     1      38.983 -19.276 -32.666  0.00  0.00    -0.053 A 
ATOM     26  C   UNL     1      37.654 -19.696 -32.548  0.00  0.00    -0.061 A 
ATOM     27  C   UNL     1      37.323 -21.034 -32.740  0.00  0.00    -0.062 A 
ATOM     28  C   UNL     1      38.320 -21.951 -33.056  0.00  0.00    -0.061 A 
ATOM     29  C   UNL     1      39.648 -21.529 -33.173  0.00  0.00    -0.053 A 
ENDBRANCH  21  24
ENDBRANCH  16  18
ENDBRANCH   1  16
TORSDOF 6
ENDMDL
MODEL 7
REMARK VINA RESULT:    -7.420     16.411     19.270
REMARK INTER + INTRA:         -10.845
REMARK INTER:                  -9.862
REMARK INTRA:                  -0.984
REMARK UNBOUND:                -0.822
REMARK  Name = cpd271.pdb
REMARK  6 active torsions:
REMARK  status: ('A' for Active; 'I' for Inactive)
REMARK    1  A    between atoms: C_4  and  C_5
REMARK    2  A    between atoms: C_5  and  N_6
REMARK    3  A    between atoms: C_9  and  C_10
REMARK    4  A    between atoms: C_10  and  N_11
REMARK    5  A    between atoms: N_11  and  C_12
REMARK    6  A    between atoms: C_15  and  C_16
REMARK                            x       y       z     vdW  Elec       q    Type
REMARK                         _______ _______ _______ _____ _____    ______ ____
ROOT
ATOM      1  C   UNL     1      45.106 -17.827 -35.436  0.00  0.00    +0.013 C 
ENDROOT
BRANCH   1   5
ATOM      2  N   UNL     1      46.721 -19.898 -38.575  0.00  0.00    -0.298 N 
ATOM      3  C   UNL     1      46.392 -20.345 -37.212  0.00  0.00    -0.000 C 
ATOM      4  C   UNL     1      46.987 -19.441 -36.136  0.00  0.00    -0.036 C 
ATOM      5  C   UNL     1      46.417 -18.012 -36.227  0.00  0.00    -0.023 C 
ATOM      6  C   UNL     1      46.170 -17.619 -37.701  0.00  0.00    -0.036 C 
ATOM      7  C   UNL     1      46.999 -18.459 -38.671  0.00  0.00    -0.000 C 
ATOM      8  H   UNL     1      47.597 -20.363 -38.814  0.00  0.00    +0.000 HD
BRANCH   2   9
ATOM      9  C   UNL     1      45.705 -20.328 -39.552  0.00  0.00    +0.024 C 
BRANCH   9  13
ATOM     10  C   UNL     1      47.117 -23.343 -42.307  0.00  0.00    -0.062 A 
ATOM     11  C   UNL     1      47.843 -23.061 -41.151  0.00  0.00    -0.061 A 
ATOM     12  C   UNL     1      47.387 -22.091 -40.258  0.00  0.00    -0.057 A 
ATOM     13  C   UNL     1      46.198 -21.391 -40.514  0.00  0.00    -0.033 A 
ATOM     14  C   UNL     1      45.477 -21.683 -41.680  0.00  0.00    -0.057 A 
ATOM     15  C   UNL     1      45.935 -22.655 -42.572  0.00  0.00    -0.061 A 
ENDBRANCH   9  13
ENDBRANCH   2   9
ENDBRANCH   1   5
BRANCH   1  16
ATOM     16  N   UNL     1      44.997 -18.705 -34.272  0.00  0.00    -0.327 N 
ATOM     17  H   UNL     1      45.740 -18.807 -33.634  0.00  0.00    +0.000 HD
BRANCH  16  18
ATOM     18  C   UNL     1      43.788 -19.394 -34.106  0.00  0.00    +0.141 A 
ATOM     19  C   UNL     1      43.299 -20.128 -35.176  0.00  0.00    -0.018 A 
ATOM     20  C   UNL     1      42.074 -20.787 -35.070  0.00  0.00    -0.031 A 
ATOM     21  C   UNL     1      41.349 -20.697 -33.889  0.00  0.00    +0.093 A 
ATOM     22  N   UNL     1      41.838 -19.961 -32.868  0.00  0.00    -0.147 NA
ATOM     23  N   UNL     1      43.052 -19.302 -32.983  0.00  0.00    -0.134 NA
BRANCH  21  24
ATOM     24  C   UNL     1      40.042 -21.346 -33.675  0.00  0.00    +0.002 A 
ATOM     25  C   UNL     1      39.008 -20.725 -32.947  0.00  0.00    -0.053 A 
ATOM     26  C   UNL     1      37.779 -21.359 -32.742  0.00  0.00    -0.061 A 
ATOM     27  C   UNL     1      37.551 -22.629 -33.263  0.00  0.00    -0.062 A 
ATOM     28  C   UNL     1      38.551 -23.262 -33.994  0.00  0.00    -0.061 A 
ATOM     29  C   UNL     1      39.779 -22.626 -34.198  0.00  0.00    -0.053 A 
ENDBRANCH  21  24
ENDBRANCH  16  18
ENDBRANCH   1  16
TORSDOF 6
ENDMDL
MODEL 8
REMARK VINA RESULT:    -7.391      3.237      8.496
REMARK INTER + INTRA:         -10.806
REMARK INTER:                  -9.514
REMARK INTRA:                  -1.292
REMARK UNBOUND:                -0.822
REMARK  Name = cpd271.pdb
REMARK  6 active torsions:
REMARK  status: ('A' for Active; 'I' for Inactive)
REMARK    1  A    between atoms: C_4  and  C_5
REMARK    2  A    between atoms: C_5  and  N_6
REMARK    3  A    between atoms: C_9  and  C_10
REMARK    4  A    between atoms: C_10  and  N_11
REMARK    5  A    between atoms: N_11  and  C_12
REMARK    6  A    between atoms: C_15  and  C_16
REMARK                            x       y       z     vdW  Elec       q    Type
REMARK                         _______ _______ _______ _____ _____    ______ ____
ROOT
ATOM      1  C   UNL     1      37.207 -36.979 -30.561  0.00  0.00    +0.013 C 
ENDROOT
BRANCH   1   5
ATOM      2  N   UNL     1      35.459 -38.847 -27.366  0.00  0.00    -0.298 N 
ATOM      3  C   UNL     1      36.153 -37.552 -27.445  0.00  0.00    -0.000 C 
ATOM      4  C   UNL     1      37.529 -37.660 -28.098  0.00  0.00    -0.036 C 
ATOM      5  C   UNL     1      37.418 -38.134 -29.561  0.00  0.00    -0.023 C 
ATOM      6  C   UNL     1      36.263 -39.147 -29.717  0.00  0.00    -0.036 C 
ATOM      7  C   UNL     1      35.888 -39.808 -28.392  0.00  0.00    -0.000 C 
ATOM      8  H   UNL     1      35.737 -39.256 -26.474  0.00  0.00    +0.000 HD
BRANCH   2   9
ATOM      9  C   UNL     1      33.995 -38.683 -27.346  0.00  0.00    +0.024 C 
BRANCH   9  13
ATOM     10  C   UNL     1      32.584 -35.922 -24.335  0.00  0.00    -0.062 A 
ATOM     11  C   UNL     1      33.347 -37.029 -23.963  0.00  0.00    -0.061 A 
ATOM     12  C   UNL     1      33.807 -37.919 -24.934  0.00  0.00    -0.057 A 
ATOM     13  C   UNL     1      33.507 -37.712 -26.290  0.00  0.00    -0.033 A 
ATOM     14  C   UNL     1      32.740 -36.596 -26.650  0.00  0.00    -0.057 A 
ATOM     15  C   UNL     1      32.281 -35.705 -25.677  0.00  0.00    -0.061 A 
ENDBRANCH   9  13
ENDBRANCH   2   9
ENDBRANCH   1   5
BRANCH   1  16
ATOM     16  N   UNL     1      35.939 -37.056 -31.284  0.00  0.00    -0.327 N 
ATOM     17  H   UNL     1      35.688 -37.858 -31.797  0.00  0.00    +0.000 HD
BRANCH  16  18
ATOM     18  C   UNL     1      35.097 -35.938 -31.215  0.00  0.00    +0.141 A 
ATOM     19  C   UNL     1      35.177 -35.125 -30.095  0.00  0.00    -0.018 A 
ATOM     20  C   UNL     1      34.322 -34.030 -29.962  0.00  0.00    -0.031 A 
ATOM     21  C   UNL     1      33.391 -33.767 -30.956  0.00  0.00    +0.093 A 
ATOM     22  N   UNL     1      33.320 -34.584 -32.030  0.00  0.00    -0.147 NA
ATOM     23  N   UNL     1      34.167 -35.674 -32.151  0.00  0.00    -0.134 NA
BRANCH  21  24
ATOM     24  C   UNL     1      32.435 -32.645 -30.912  0.00  0.00    +0.002 A 
ATOM     25  C   UNL     1      31.170 -32.712 -31.530  0.00  0.00    -0.053 A 
ATOM     26  C   UNL     1      30.281 -31.633 -31.489  0.00  0.00    -0.061 A 
ATOM     27  C   UNL     1      30.633 -30.462 -30.826  0.00  0.00    -0.062 A 
ATOM     28  C   UNL     1      31.871 -30.371 -30.199  0.00  0.00    -0.061 A 
ATOM     29  C   UNL     1      32.758 -31.450 -30.240  0.00  0.00    -0.053 A 
ENDBRANCH  21  24
ENDBRANCH  16  18
ENDBRANCH   1  16
TORSDOF 6
ENDMDL
MODEL 9
REMARK VINA RESULT:    -7.380      3.453      6.100
REMARK INTER + INTRA:         -10.791
REMARK INTER:                  -9.947
REMARK INTRA:                  -0.843
REMARK UNBOUND:                -0.822
REMARK  Name = cpd271.pdb
REMARK  6 active torsions:
REMARK  status: ('A' for Active; 'I' for Inactive)
REMARK    1  A    between atoms: C_4  and  C_5
REMARK    2  A    between atoms: C_5  and  N_6
REMARK    3  A    between atoms: C_9  and  C_10
REMARK    4  A    between atoms: C_10  and  N_11
REMARK    5  A    between atoms: N_11  and  C_12
REMARK    6  A    between atoms: C_15  and  C_16
REMARK                            x       y       z     vdW  Elec       q    Type
REMARK                         _______ _______ _______ _____ _____    ______ ____
ROOT
ATOM      1  C   UNL     1      34.230 -34.863 -30.779  0.00  0.00    +0.013 C 
ENDROOT
BRANCH   1   5
ATOM      2  N   UNL     1      32.004 -37.836 -32.500  0.00  0.00    -0.298 N 
ATOM      3  C   UNL     1      33.385 -37.407 -32.771  0.00  0.00    -0.000 C 
ATOM      4  C   UNL     1      33.498 -35.904 -33.018  0.00  0.00    -0.036 C 
ATOM      5  C   UNL     1      33.075 -35.099 -31.773  0.00  0.00    -0.023 C 
ATOM      6  C   UNL     1      31.918 -35.809 -31.035  0.00  0.00    -0.036 C 
ATOM      7  C   UNL     1      31.157 -36.773 -31.943  0.00  0.00    -0.000 C 
ATOM      8  H   UNL     1      31.601 -38.059 -33.409  0.00  0.00    +0.000 HD
BRANCH   2   9
ATOM      9  C   UNL     1      31.963 -39.059 -31.679  0.00  0.00    +0.024 C 
BRANCH   9  13
ATOM     10  C   UNL     1      35.872 -40.433 -30.450  0.00  0.00    -0.062 A 
ATOM     11  C   UNL     1      35.018 -39.839 -29.522  0.00  0.00    -0.061 A 
ATOM     12  C   UNL     1      33.754 -39.399 -29.915  0.00  0.00    -0.057 A 
ATOM     13  C   UNL     1      33.331 -39.546 -31.245  0.00  0.00    -0.033 A 
ATOM     14  C   UNL     1      34.198 -40.145 -32.169  0.00  0.00    -0.057 A 
ATOM     15  C   UNL     1      35.462 -40.586 -31.773  0.00  0.00    -0.061 A 
ENDBRANCH   9  13
ENDBRANCH   2   9
ENDBRANCH   1   5
BRANCH   1  16
ATOM     16  N   UNL     1      34.802 -36.097 -30.244  0.00  0.00    -0.327 N 
ATOM     17  H   UNL     1      34.246 -36.759 -29.772  0.00  0.00    +0.000 HD
BRANCH  16  18
ATOM     18  C   UNL     1      36.177 -36.295 -30.430  0.00  0.00    +0.141 A 
ATOM     19  C   UNL     1      36.897 -36.897 -29.410  0.00  0.00    -0.018 A 
ATOM     20  C   UNL     1      38.277 -37.067 -29.533  0.00  0.00    -0.031 A 
ATOM     21  C   UNL     1      38.919 -36.623 -30.681  0.00  0.00    +0.093 A 
ATOM     22  N   UNL     1      38.199 -36.023 -31.653  0.00  0.00    -0.147 NA
ATOM     23  N   UNL     1      36.830 -35.851 -31.520  0.00  0.00    -0.134 NA
BRANCH  21  24
ATOM     24  C   UNL     1      40.372 -36.744 -30.909  0.00  0.00    +0.002 A 
ATOM     25  C   UNL     1      41.096 -37.893 -30.534  0.00  0.00    -0.053 A 
ATOM     26  C   UNL     1      42.475 -37.987 -30.746  0.00  0.00    -0.061 A 
ATOM     27  C   UNL     1      43.164 -36.935 -31.342  0.00  0.00    -0.062 A 
ATOM     28  C   UNL     1      42.473 -35.793 -31.732  0.00  0.00    -0.061 A 
ATOM     29  C   UNL     1      41.094 -35.701 -31.519  0.00  0.00    -0.053 A 
ENDBRANCH  21  24
ENDBRANCH  16  18
ENDBRANCH   1  16
TORSDOF 6
ENDMDL
MODEL 10
REMARK VINA RESULT:    -7.350      2.275      4.523
REMARK INTER + INTRA:         -10.751
REMARK INTER:                  -9.596
REMARK INTRA:                  -1.155
REMARK UNBOUND:                -0.822
REMARK  Name = cpd271.pdb
REMARK  6 active torsions:
REMARK  status: ('A' for Active; 'I' for Inactive)
REMARK    1  A    between atoms: C_4  and  C_5
REMARK    2  A    between atoms: C_5  and  N_6
REMARK    3  A    between atoms: C_9  and  C_10
REMARK    4  A    between atoms: C_10  and  N_11
REMARK    5  A    between atoms: N_11  and  C_12
REMARK    6  A    between atoms: C_15  and  C_16
REMARK                            x       y       z     vdW  Elec       q    Type
REMARK                         _______ _______ _______ _____ _____    ______ ____
ROOT
ATOM      1  C   UNL     1      34.550 -33.153 -30.209  0.00  0.00    +0.013 C 
ENDROOT
BRANCH   1   5
ATOM      2  N   UNL     1      30.786 -34.509 -29.348  0.00  0.00    -0.298 N 
ATOM      3  C   UNL     1      31.669 -34.817 -30.483  0.00  0.00    -0.000 C 
ATOM      4  C   UNL     1      32.199 -33.564 -31.175  0.00  0.00    -0.036 C 
ATOM      5  C   UNL     1      33.069 -32.723 -30.220  0.00  0.00    -0.023 C 
ATOM      6  C   UNL     1      32.518 -32.794 -28.779  0.00  0.00    -0.036 C 
ATOM      7  C   UNL     1      31.044 -33.195 -28.741  0.00  0.00    -0.000 C 
ATOM      8  H   UNL     1      29.845 -34.450 -29.737  0.00  0.00    +0.000 HD
BRANCH   2   9
ATOM      9  C   UNL     1      30.789 -35.587 -28.344  0.00  0.00    +0.024 C 
BRANCH   9  13
ATOM     10  C   UNL     1      34.466 -37.858 -28.277  0.00  0.00    -0.062 A 
ATOM     11  C   UNL     1      34.351 -36.694 -27.517  0.00  0.00    -0.061 A 
ATOM     12  C   UNL     1      33.164 -35.962 -27.534  0.00  0.00    -0.057 A 
ATOM     13  C   UNL     1      32.077 -36.386 -28.314  0.00  0.00    -0.033 A 
ATOM     14  C   UNL     1      32.204 -37.558 -29.073  0.00  0.00    -0.057 A 
ATOM     15  C   UNL     1      33.393 -38.290 -29.054  0.00  0.00    -0.061 A 
ENDBRANCH   9  13
ENDBRANCH   2   9
ENDBRANCH   1   5
BRANCH   1  16
ATOM     16  N   UNL     1      34.947 -33.918 -31.390  0.00  0.00    -0.327 N 
ATOM     17  H   UNL     1      34.400 -33.920 -32.208  0.00  0.00    +0.000 HD
BRANCH  16  18
ATOM     18  C   UNL     1      36.139 -34.649 -31.304  0.00  0.00    +0.141 A 
ATOM     19  C   UNL     1      36.107 -35.885 -30.674  0.00  0.00    -0.018 A 
ATOM     20  C   UNL     1      37.281 -36.623 -30.522  0.00  0.00    -0.031 A 
ATOM     21  C   UNL     1      38.478 -36.108 -31.000  0.00  0.00    +0.093 A 
ATOM     22  N   UNL     1      38.487 -34.894 -31.593  0.00  0.00    -0.147 NA
ATOM     23  N   UNL     1      37.318 -34.163 -31.734  0.00  0.00    -0.134 NA
BRANCH  21  24
ATOM     24  C   UNL     1      39.776 -36.799 -30.883  0.00  0.00    +0.002 A 
ATOM     25  C   UNL     1      40.757 -36.727 -31.891  0.00  0.00    -0.053 A 
ATOM     26  C   UNL     1      41.977 -37.399 -31.770  0.00  0.00    -0.061 A 
ATOM     27  C   UNL     1      42.249 -38.158 -30.636  0.00  0.00    -0.062 A 
ATOM     28  C   UNL     1      41.302 -38.239 -29.620  0.00  0.00    -0.061 A 
ATOM     29  C   UNL     1      40.083 -37.566 -29.743  0.00  0.00    -0.053 A 
ENDBRANCH  21  24
ENDBRANCH  16  18
ENDBRANCH   1  16
TORSDOF 6
ENDMDL
MODEL 11
REMARK VINA RESULT:    -7.335      4.167      5.593
REMARK INTER + INTRA:         -10.730
REMARK INTER:                  -9.667
REMARK INTRA:                  -1.063
REMARK UNBOUND:                -0.822
REMARK  Name = cpd271.pdb
REMARK  6 active torsions:
REMARK  status: ('A' for Active; 'I' for Inactive)
REMARK    1  A    between atoms: C_4  and  C_5
REMARK    2  A    between atoms: C_5  and  N_6
REMARK    3  A    between atoms: C_9  and  C_10
REMARK    4  A    between atoms: C_10  and  N_11
REMARK    5  A    between atoms: N_11  and  C_12
REMARK    6  A    between atoms: C_15  and  C_16
REMARK                            x       y       z     vdW  Elec       q    Type
REMARK                         _______ _______ _______ _____ _____    ______ ____
ROOT
ATOM      1  C   UNL     1      34.264 -38.235 -27.978  0.00  0.00    +0.013 C 
ENDROOT
BRANCH   1   5
ATOM      2  N   UNL     1      32.817 -39.829 -31.458  0.00  0.00    -0.298 N 
ATOM      3  C   UNL     1      32.198 -38.881 -30.519  0.00  0.00    -0.000 C 
ATOM      4  C   UNL     1      32.233 -39.375 -29.075  0.00  0.00    -0.036 C 
ATOM      5  C   UNL     1      33.681 -39.532 -28.572  0.00  0.00    -0.023 C 
ATOM      6  C   UNL     1      34.603 -40.016 -29.714  0.00  0.00    -0.036 C 
ATOM      7  C   UNL     1      33.824 -40.700 -30.837  0.00  0.00    -0.000 C 
ATOM      8  H   UNL     1      32.067 -40.449 -31.761  0.00  0.00    +0.000 HD
BRANCH   2   9
ATOM      9  C   UNL     1      33.344 -39.148 -32.654  0.00  0.00    +0.024 C 
BRANCH   9  13
ATOM     10  C   UNL     1      33.456 -34.845 -32.270  0.00  0.00    -0.062 A 
ATOM     11  C   UNL     1      34.378 -35.630 -31.580  0.00  0.00    -0.061 A 
ATOM     12  C   UNL     1      34.346 -37.019 -31.706  0.00  0.00    -0.057 A 
ATOM     13  C   UNL     1      33.389 -37.638 -32.524  0.00  0.00    -0.033 A 
ATOM     14  C   UNL     1      32.468 -36.838 -33.213  0.00  0.00    -0.057 A 
ATOM     15  C   UNL     1      32.502 -35.448 -33.087  0.00  0.00    -0.061 A 
ENDBRANCH   9  13
ENDBRANCH   2   9
ENDBRANCH   1   5
BRANCH   1  16
ATOM     16  N   UNL     1      35.541 -38.427 -27.293  0.00  0.00    -0.327 N 
ATOM     17  H   UNL     1      35.584 -38.793 -26.379  0.00  0.00    +0.000 HD
BRANCH  16  18
ATOM     18  C   UNL     1      36.700 -38.067 -27.993  0.00  0.00    +0.141 A 
ATOM     19  C   UNL     1      36.656 -36.938 -28.798  0.00  0.00    -0.018 A 
ATOM     20  C   UNL     1      37.772 -36.573 -29.552  0.00  0.00    -0.031 A 
ATOM     21  C   UNL     1      38.920 -37.351 -29.494  0.00  0.00    +0.093 A 
ATOM     22  N   UNL     1      38.932 -38.456 -28.717  0.00  0.00    -0.147 NA
ATOM     23  N   UNL     1      37.818 -38.817 -27.977  0.00  0.00    -0.134 NA
BRANCH  21  24
ATOM     24  C   UNL     1      40.149 -37.061 -30.256  0.00  0.00    +0.002 A 
ATOM     25  C   UNL     1      41.284 -37.894 -30.193  0.00  0.00    -0.053 A 
ATOM     26  C   UNL     1      42.446 -37.598 -30.912  0.00  0.00    -0.061 A 
ATOM     27  C   UNL     1      42.501 -36.463 -31.715  0.00  0.00    -0.062 A 
ATOM     28  C   UNL     1      41.392 -35.628 -31.805  0.00  0.00    -0.061 A 
ATOM     29  C   UNL     1      40.232 -35.926 -31.086  0.00  0.00    -0.053 A 
ENDBRANCH  21  24
ENDBRANCH  16  18
ENDBRANCH   1  16
TORSDOF 6
ENDMDL
MODEL 12
REMARK VINA RESULT:    -7.330      1.692     10.678
REMARK INTER + INTRA:         -10.723
REMARK INTER:                  -9.793
REMARK INTRA:                  -0.930
REMARK UNBOUND:                -0.822
REMARK  Name = cpd271.pdb
REMARK  6 active torsions:
REMARK  status: ('A' for Active; 'I' for Inactive)
REMARK    1  A    between atoms: C_4  and  C_5
REMARK    2  A    between atoms: C_5  and  N_6
REMARK    3  A    between atoms: C_9  and  C_10
REMARK    4  A    between atoms: C_10  and  N_11
REMARK    5  A    between atoms: N_11  and  C_12
REMARK    6  A    between atoms: C_15  and  C_16
REMARK                            x       y       z     vdW  Elec       q    Type
REMARK                         _______ _______ _______ _____ _____    ______ ____
ROOT
ATOM      1  C   UNL     1      33.278 -36.444 -30.245  0.00  0.00    +0.013 C 
ENDROOT
BRANCH   1   5
ATOM      2  N   UNL     1      37.306 -37.143 -30.045  0.00  0.00    -0.298 N 
ATOM      3  C   UNL     1      36.301 -37.653 -30.990  0.00  0.00    -0.000 C 
ATOM      4  C   UNL     1      35.093 -38.271 -30.290  0.00  0.00    -0.036 C 
ATOM      5  C   UNL     1      34.341 -37.225 -29.444  0.00  0.00    -0.023 C 
ATOM      6  C   UNL     1      35.331 -36.219 -28.817  0.00  0.00    -0.036 C 
ATOM      7  C   UNL     1      36.750 -36.779 -28.735  0.00  0.00    -0.000 C 
ATOM      8  H   UNL     1      37.939 -37.923 -29.867  0.00  0.00    +0.000 HD
BRANCH   2   9
ATOM      9  C   UNL     1      38.100 -36.048 -30.629  0.00  0.00    +0.024 C 
BRANCH   9  13
ATOM     10  C   UNL     1      41.933 -37.301 -32.184  0.00  0.00    -0.062 A 
ATOM     11  C   UNL     1      41.535 -37.699 -30.908  0.00  0.00    -0.061 A 
ATOM     12  C   UNL     1      40.296 -37.299 -30.406  0.00  0.00    -0.057 A 
ATOM     13  C   UNL     1      39.442 -36.494 -31.176  0.00  0.00    -0.033 A 
ATOM     14  C   UNL     1      39.853 -36.102 -32.456  0.00  0.00    -0.057 A 
ATOM     15  C   UNL     1      41.093 -36.504 -32.958  0.00  0.00    -0.061 A 
ENDBRANCH   9  13
ENDBRANCH   2   9
ENDBRANCH   1   5
BRANCH   1  16
ATOM     16  N   UNL     1      33.709 -35.104 -30.636  0.00  0.00    -0.327 N 
ATOM     17  H   UNL     1      34.564 -34.954 -31.101  0.00  0.00    +0.000 HD
BRANCH  16  18
ATOM     18  C   UNL     1      32.851 -34.041 -30.319  0.00  0.00    +0.141 A 
ATOM     19  C   UNL     1      32.317 -33.989 -29.041  0.00  0.00    -0.018 A 
ATOM     20  C   UNL     1      31.418 -32.978 -28.699  0.00  0.00    -0.031 A 
ATOM     21  C   UNL     1      31.062 -32.031 -29.650  0.00  0.00    +0.093 A 
ATOM     22  N   UNL     1      31.582 -32.114 -30.894  0.00  0.00    -0.147 NA
ATOM     23  N   UNL     1      32.468 -33.126 -31.228  0.00  0.00    -0.134 NA
BRANCH  21  24
ATOM     24  C   UNL     1      30.116 -30.928 -29.398  0.00  0.00    +0.002 A 
ATOM     25  C   UNL     1      29.819 -29.957 -30.375  0.00  0.00    -0.053 A 
ATOM     26  C   UNL     1      28.929 -28.910 -30.115  0.00  0.00    -0.061 A 
ATOM     27  C   UNL     1      28.311 -28.810 -28.873  0.00  0.00    -0.062 A 
ATOM     28  C   UNL     1      28.578 -29.760 -27.892  0.00  0.00    -0.061 A 
ATOM     29  C   UNL     1      29.467 -30.806 -28.154  0.00  0.00    -0.053 A 
ENDBRANCH  21  24
ENDBRANCH  16  18
ENDBRANCH   1  16
TORSDOF 6
ENDMDL
MODEL 13
REMARK VINA RESULT:    -7.301     32.227     35.689
REMARK INTER + INTRA:         -10.685
REMARK INTER:                  -9.976
REMARK INTRA:                  -0.708
REMARK UNBOUND:                -0.822
REMARK  Name = cpd271.pdb
REMARK  6 active torsions:
REMARK  status: ('A' for Active; 'I' for Inactive)
REMARK    1  A    between atoms: C_4  and  C_5
REMARK    2  A    between atoms: C_5  and  N_6
REMARK    3  A    between atoms: C_9  and  C_10
REMARK    4  A    between atoms: C_10  and  N_11
REMARK    5  A    between atoms: N_11  and  C_12
REMARK    6  A    between atoms: C_15  and  C_16
REMARK                            x       y       z     vdW  Elec       q    Type
REMARK                         _______ _______ _______ _____ _____    ______ ____
ROOT
ATOM      1  C   UNL     1      63.377 -18.603  -9.491  0.00  0.00    +0.013 C 
ENDROOT
BRANCH   1   5
ATOM      2  N   UNL     1      59.487 -18.118 -10.667  0.00  0.00    -0.298 N 
ATOM      3  C   UNL     1      60.733 -18.015 -11.443  0.00  0.00    -0.000 C 
ATOM      4  C   UNL     1      61.756 -17.085 -10.795  0.00  0.00    -0.036 C 
ATOM      5  C   UNL     1      62.197 -17.613  -9.415  0.00  0.00    -0.023 C 
ATOM      6  C   UNL     1      61.016 -18.299  -8.694  0.00  0.00    -0.036 C 
ATOM      7  C   UNL     1      59.662 -17.842  -9.235  0.00  0.00    -0.000 C 
ATOM      8  H   UNL     1      58.882 -17.376 -11.017  0.00  0.00    +0.000 HD
BRANCH   2   9
ATOM      9  C   UNL     1      58.802 -19.401 -10.900  0.00  0.00    +0.024 C 
BRANCH   9  13
ATOM     10  C   UNL     1      55.566 -19.161 -13.754  0.00  0.00    -0.062 A 
ATOM     11  C   UNL     1      55.865 -18.065 -12.946  0.00  0.00    -0.061 A 
ATOM     12  C   UNL     1      56.912 -18.139 -12.027  0.00  0.00    -0.057 A 
ATOM     13  C   UNL     1      57.671 -19.313 -11.905  0.00  0.00    -0.033 A 
ATOM     14  C   UNL     1      57.361 -20.407 -12.724  0.00  0.00    -0.057 A 
ATOM     15  C   UNL     1      56.313 -20.331 -13.644  0.00  0.00    -0.061 A 
ENDBRANCH   9  13
ENDBRANCH   2   9
ENDBRANCH   1   5
BRANCH   1  16
ATOM     16  N   UNL     1      63.088 -19.800 -10.278  0.00  0.00    -0.327 N 
ATOM     17  H   UNL     1      62.849 -19.742 -11.232  0.00  0.00    +0.000 HD
BRANCH  16  18
ATOM     18  C   UNL     1      63.165 -21.032  -9.616  0.00  0.00    +0.141 A 
ATOM     19  C   UNL     1      63.242 -21.029  -8.231  0.00  0.00    -0.018 A 
ATOM     20  C   UNL     1      63.372 -22.231  -7.535  0.00  0.00    -0.031 A 
ATOM     21  C   UNL     1      63.429 -23.425  -8.239  0.00  0.00    +0.093 A 
ATOM     22  N   UNL     1      63.371 -23.401  -9.588  0.00  0.00    -0.147 NA
ATOM     23  N   UNL     1      63.250 -22.203 -10.274  0.00  0.00    -0.134 NA
BRANCH  21  24
ATOM     24  C   UNL     1      63.575 -24.749  -7.604  0.00  0.00    +0.002 A 
ATOM     25  C   UNL     1      64.832 -25.272  -7.242  0.00  0.00    -0.053 A 
ATOM     26  C   UNL     1      64.953 -26.534  -6.653  0.00  0.00    -0.061 A 
ATOM     27  C   UNL     1      63.820 -27.303  -6.406  0.00  0.00    -0.062 A 
ATOM     28  C   UNL     1      62.565 -26.807  -6.743  0.00  0.00    -0.061 A 
ATOM     29  C   UNL     1      62.446 -25.545  -7.332  0.00  0.00    -0.053 A 
ENDBRANCH  21  24
ENDBRANCH  16  18
ENDBRANCH   1  16
TORSDOF 6
ENDMDL
MODEL 14
REMARK VINA RESULT:    -7.273      5.974      8.198
REMARK INTER + INTRA:         -10.646
REMARK INTER:                  -9.683
REMARK INTRA:                  -0.963
REMARK UNBOUND:                -0.822
REMARK  Name = cpd271.pdb
REMARK  6 active torsions:
REMARK  status: ('A' for Active; 'I' for Inactive)
REMARK    1  A    between atoms: C_4  and  C_5
REMARK    2  A    between atoms: C_5  and  N_6
REMARK    3  A    between atoms: C_9  and  C_10
REMARK    4  A    between atoms: C_10  and  N_11
REMARK    5  A    between atoms: N_11  and  C_12
REMARK    6  A    between atoms: C_15  and  C_16
REMARK                            x       y       z     vdW  Elec       q    Type
REMARK                         _______ _______ _______ _____ _____    ______ ____
ROOT
ATOM      1  C   UNL     1      34.543 -39.101 -28.469  0.00  0.00    +0.013 C 
ENDROOT
BRANCH   1   5
ATOM      2  N   UNL     1      33.331 -41.874 -31.225  0.00  0.00    -0.298 N 
ATOM      3  C   UNL     1      32.691 -41.436 -29.974  0.00  0.00    -0.000 C 
ATOM      4  C   UNL     1      33.638 -41.493 -28.778  0.00  0.00    -0.036 C 
ATOM      5  C   UNL     1      34.831 -40.534 -28.963  0.00  0.00    -0.023 C 
ATOM      6  C   UNL     1      35.255 -40.475 -30.448  0.00  0.00    -0.036 C 
ATOM      7  C   UNL     1      34.790 -41.700 -31.232  0.00  0.00    -0.000 C 
ATOM      8  H   UNL     1      33.174 -42.880 -31.279  0.00  0.00    +0.000 HD
BRANCH   2   9
ATOM      9  C   UNL     1      32.699 -41.259 -32.406  0.00  0.00    +0.024 C 
BRANCH   9  13
ATOM     10  C   UNL     1      33.722 -43.219 -36.120  0.00  0.00    -0.062 A 
ATOM     11  C   UNL     1      33.204 -43.961 -35.060  0.00  0.00    -0.061 A 
ATOM     12  C   UNL     1      32.870 -43.330 -33.862  0.00  0.00    -0.057 A 
ATOM     13  C   UNL     1      33.051 -41.947 -33.711  0.00  0.00    -0.033 A 
ATOM     14  C   UNL     1      33.572 -41.211 -34.784  0.00  0.00    -0.057 A 
ATOM     15  C   UNL     1      33.906 -41.844 -35.983  0.00  0.00    -0.061 A 
ENDBRANCH   9  13
ENDBRANCH   2   9
ENDBRANCH   1   5
BRANCH   1  16
ATOM     16  N   UNL     1      35.604 -38.548 -27.629  0.00  0.00    -0.327 N 
ATOM     17  H   UNL     1      35.492 -38.456 -26.655  0.00  0.00    +0.000 HD
BRANCH  16  18
ATOM     18  C   UNL     1      36.786 -38.155 -28.271  0.00  0.00    +0.141 A 
ATOM     19  C   UNL     1      36.722 -37.109 -29.179  0.00  0.00    -0.018 A 
ATOM     20  C   UNL     1      37.864 -36.719 -29.879  0.00  0.00    -0.031 A 
ATOM     21  C   UNL     1      39.060 -37.390 -29.662  0.00  0.00    +0.093 A 
ATOM     22  N   UNL     1      39.092 -38.418 -28.786  0.00  0.00    -0.147 NA
ATOM     23  N   UNL     1      37.952 -38.804 -28.101  0.00  0.00    -0.134 NA
BRANCH  21  24
ATOM     24  C   UNL     1      40.322 -37.066 -30.354  0.00  0.00    +0.002 A 
ATOM     25  C   UNL     1      40.566 -35.794 -30.909  0.00  0.00    -0.053 A 
ATOM     26  C   UNL     1      41.763 -35.507 -31.574  0.00  0.00    -0.061 A 
ATOM     27  C   UNL     1      42.747 -36.484 -31.695  0.00  0.00    -0.062 A 
ATOM     28  C   UNL     1      42.537 -37.745 -31.147  0.00  0.00    -0.061 A 
ATOM     29  C   UNL     1      41.340 -38.029 -30.484  0.00  0.00    -0.053 A 
ENDBRANCH  21  24
ENDBRANCH  16  18
ENDBRANCH   1  16
TORSDOF 6
ENDMDL
MODEL 15
REMARK VINA RESULT:    -7.187      5.016      7.322
REMARK INTER + INTRA:         -10.530
REMARK INTER:                  -9.755
REMARK INTRA:                  -0.775
REMARK UNBOUND:                -0.822
REMARK  Name = cpd271.pdb
REMARK  6 active torsions:
REMARK  status: ('A' for Active; 'I' for Inactive)
REMARK    1  A    between atoms: C_4  and  C_5
REMARK    2  A    between atoms: C_5  and  N_6
REMARK    3  A    between atoms: C_9  and  C_10
REMARK    4  A    between atoms: C_10  and  N_11
REMARK    5  A    between atoms: N_11  and  C_12
REMARK    6  A    between atoms: C_15  and  C_16
REMARK                            x       y       z     vdW  Elec       q    Type
REMARK                         _______ _______ _______ _____ _____    ______ ____
ROOT
ATOM      1  C   UNL     1      33.310 -36.977 -28.886  0.00  0.00    +0.013 C 
ENDROOT
BRANCH   1   5
ATOM      2  N   UNL     1      32.393 -37.238 -24.905  0.00  0.00    -0.298 N 
ATOM      3  C   UNL     1      31.575 -36.780 -26.039  0.00  0.00    -0.000 C 
ATOM      4  C   UNL     1      32.281 -35.723 -26.886  0.00  0.00    -0.036 C 
ATOM      5  C   UNL     1      33.562 -36.287 -27.530  0.00  0.00    -0.023 C 
ATOM      6  C   UNL     1      34.252 -37.290 -26.580  0.00  0.00    -0.036 C 
ATOM      7  C   UNL     1      33.838 -37.087 -25.123  0.00  0.00    -0.000 C 
ATOM      8  H   UNL     1      32.166 -36.614 -24.131  0.00  0.00    +0.000 HD
BRANCH   2   9
ATOM      9  C   UNL     1      32.040 -38.608 -24.495  0.00  0.00    +0.024 C 
BRANCH   9  13
ATOM     10  C   UNL     1      34.431 -40.090 -21.214  0.00  0.00    -0.062 A 
ATOM     11  C   UNL     1      33.673 -38.931 -21.055  0.00  0.00    -0.061 A 
ATOM     12  C   UNL     1      32.897 -38.453 -22.112  0.00  0.00    -0.057 A 
ATOM     13  C   UNL     1      32.873 -39.131 -23.341  0.00  0.00    -0.033 A 
ATOM     14  C   UNL     1      33.639 -40.295 -23.487  0.00  0.00    -0.057 A 
ATOM     15  C   UNL     1      34.414 -40.773 -22.429  0.00  0.00    -0.061 A 
ENDBRANCH   9  13
ENDBRANCH   2   9
ENDBRANCH   1   5
BRANCH   1  16
ATOM     16  N   UNL     1      33.774 -36.201 -30.034  0.00  0.00    -0.327 N 
ATOM     17  H   UNL     1      33.155 -35.651 -30.566  0.00  0.00    +0.000 HD
BRANCH  16  18
ATOM     18  C   UNL     1      35.139 -36.274 -30.342  0.00  0.00    +0.141 A 
ATOM     19  C   UNL     1      35.813 -35.094 -30.618  0.00  0.00    -0.018 A 
ATOM     20  C   UNL     1      37.161 -35.127 -30.979  0.00  0.00    -0.031 A 
ATOM     21  C   UNL     1      37.815 -36.347 -31.065  0.00  0.00    +0.093 A 
ATOM     22  N   UNL     1      37.132 -37.484 -30.809  0.00  0.00    -0.147 NA
ATOM     23  N   UNL     1      35.792 -37.445 -30.458  0.00  0.00    -0.134 NA
BRANCH  21  24
ATOM     24  C   UNL     1      39.233 -36.495 -31.446  0.00  0.00    +0.002 A 
ATOM     25  C   UNL     1      39.769 -35.878 -32.594  0.00  0.00    -0.053 A 
ATOM     26  C   UNL     1      41.112 -36.040 -32.948  0.00  0.00    -0.061 A 
ATOM     27  C   UNL     1      41.954 -36.819 -32.161  0.00  0.00    -0.062 A 
ATOM     28  C   UNL     1      41.454 -37.432 -31.017  0.00  0.00    -0.061 A 
ATOM     29  C   UNL     1      40.112 -37.270 -30.665  0.00  0.00    -0.053 A 
ENDBRANCH  21  24
ENDBRANCH  16  18
ENDBRANCH   1  16
TORSDOF 6
ENDMDL
MODEL 16
REMARK VINA RESULT:    -7.062     16.160     17.239
REMARK INTER + INTRA:         -10.362
REMARK INTER:                  -8.951
REMARK INTRA:                  -1.411
REMARK UNBOUND:                -0.822
REMARK  Name = cpd271.pdb
REMARK  6 active torsions:
REMARK  status: ('A' for Active; 'I' for Inactive)
REMARK    1  A    between atoms: C_4  and  C_5
REMARK    2  A    between atoms: C_5  and  N_6
REMARK    3  A    between atoms: C_9  and  C_10
REMARK    4  A    between atoms: C_10  and  N_11
REMARK    5  A    between atoms: N_11  and  C_12
REMARK    6  A    between atoms: C_15  and  C_16
REMARK                            x       y       z     vdW  Elec       q    Type
REMARK                         _______ _______ _______ _____ _____    ______ ____
ROOT
ATOM      1  C   UNL     1      43.565 -19.969 -34.438  0.00  0.00    +0.013 C 
ENDROOT
BRANCH   1   5
ATOM      2  N   UNL     1      39.565 -19.108 -34.347  0.00  0.00    -0.298 N 
ATOM      3  C   UNL     1      40.597 -18.721 -35.322  0.00  0.00    -0.000 C 
ATOM      4  C   UNL     1      41.820 -18.088 -34.663  0.00  0.00    -0.036 C 
ATOM      5  C   UNL     1      42.526 -19.083 -33.721  0.00  0.00    -0.023 C 
ATOM      6  C   UNL     1      41.493 -19.993 -33.020  0.00  0.00    -0.036 C 
ATOM      7  C   UNL     1      40.095 -19.377 -33.003  0.00  0.00    -0.000 C 
ATOM      8  H   UNL     1      38.961 -18.293 -34.245  0.00  0.00    +0.000 HD
BRANCH   2   9
ATOM      9  C   UNL     1      38.735 -20.221 -34.842  0.00  0.00    +0.024 C 
BRANCH   9  13
ATOM     10  C   UNL     1      40.441 -22.245 -38.259  0.00  0.00    -0.062 A 
ATOM     11  C   UNL     1      40.929 -22.505 -36.980  0.00  0.00    -0.061 A 
ATOM     12  C   UNL     1      40.377 -21.856 -35.875  0.00  0.00    -0.057 A 
ATOM     13  C   UNL     1      39.330 -20.937 -36.039  0.00  0.00    -0.033 A 
ATOM     14  C   UNL     1      38.847 -20.684 -37.330  0.00  0.00    -0.057 A 
ATOM     15  C   UNL     1      39.400 -21.335 -38.435  0.00  0.00    -0.061 A 
ENDBRANCH   9  13
ENDBRANCH   2   9
ENDBRANCH   1   5
BRANCH   1  16
ATOM     16  N   UNL     1      44.476 -19.220 -35.301  0.00  0.00    -0.327 N 
ATOM     17  H   UNL     1      44.837 -18.345 -35.031  0.00  0.00    +0.000 HD
BRANCH  16  18
ATOM     18  C   UNL     1      44.813 -19.804 -36.530  0.00  0.00    +0.141 A 
ATOM     19  C   UNL     1      43.790 -20.106 -37.416  0.00  0.00    -0.018 A 
ATOM     20  C   UNL     1      44.076 -20.734 -38.628  0.00  0.00    -0.031 A 
ATOM     21  C   UNL     1      45.390 -21.058 -38.935  0.00  0.00    +0.093 A 
ATOM     22  N   UNL     1      46.368 -20.771 -38.048  0.00  0.00    -0.147 NA
ATOM     23  N   UNL     1      46.075 -20.153 -36.843  0.00  0.00    -0.134 NA
BRANCH  21  24
ATOM     24  C   UNL     1      45.801 -21.730 -40.183  0.00  0.00    +0.002 A 
ATOM     25  C   UNL     1      46.949 -22.545 -40.251  0.00  0.00    -0.053 A 
ATOM     26  C   UNL     1      47.332 -23.165 -41.445  0.00  0.00    -0.061 A 
ATOM     27  C   UNL     1      46.575 -22.988 -42.599  0.00  0.00    -0.062 A 
ATOM     28  C   UNL     1      45.432 -22.196 -42.558  0.00  0.00    -0.061 A 
ATOM     29  C   UNL     1      45.051 -21.578 -41.364  0.00  0.00    -0.053 A 
ENDBRANCH  21  24
ENDBRANCH  16  18
ENDBRANCH   1  16
TORSDOF 6
ENDMDL
MODEL 17
REMARK VINA RESULT:    -6.954     17.449     18.695
REMARK INTER + INTRA:         -10.216
REMARK INTER:                  -8.173
REMARK INTRA:                  -2.043
REMARK UNBOUND:                -0.822
REMARK  Name = cpd271.pdb
REMARK  6 active torsions:
REMARK  status: ('A' for Active; 'I' for Inactive)
REMARK    1  A    between atoms: C_4  and  C_5
REMARK    2  A    between atoms: C_5  and  N_6
REMARK    3  A    between atoms: C_9  and  C_10
REMARK    4  A    between atoms: C_10  and  N_11
REMARK    5  A    between atoms: N_11  and  C_12
REMARK    6  A    between atoms: C_15  and  C_16
REMARK                            x       y       z     vdW  Elec       q    Type
REMARK                         _______ _______ _______ _____ _____    ______ ____
ROOT
ATOM      1  C   UNL     1      45.467 -17.048 -34.750  0.00  0.00    +0.013 C 
ENDROOT
BRANCH   1   5
ATOM      2  N   UNL     1      42.408 -19.736 -35.158  0.00  0.00    -0.298 N 
ATOM      3  C   UNL     1      42.693 -18.503 -35.907  0.00  0.00    -0.000 C 
ATOM      4  C   UNL     1      42.916 -17.298 -34.995  0.00  0.00    -0.036 C 
ATOM      5  C   UNL     1      44.148 -17.501 -34.092  0.00  0.00    -0.023 C 
ATOM      6  C   UNL     1      44.279 -18.983 -33.677  0.00  0.00    -0.036 C 
ATOM      7  C   UNL     1      42.956 -19.737 -33.794  0.00  0.00    -0.000 C 
ATOM      8  H   UNL     1      41.395 -19.763 -35.045  0.00  0.00    +0.000 HD
BRANCH   2   9
ATOM      9  C   UNL     1      42.807 -20.938 -35.910  0.00  0.00    +0.024 C 
BRANCH   9  13
ATOM     10  C   UNL     1      40.559 -21.549 -39.551  0.00  0.00    -0.062 A 
ATOM     11  C   UNL     1      39.895 -21.460 -38.329  0.00  0.00    -0.061 A 
ATOM     12  C   UNL     1      40.618 -21.258 -37.153  0.00  0.00    -0.057 A 
ATOM     13  C   UNL     1      42.016 -21.146 -37.188  0.00  0.00    -0.033 A 
ATOM     14  C   UNL     1      42.673 -21.237 -38.423  0.00  0.00    -0.057 A 
ATOM     15  C   UNL     1      41.947 -21.438 -39.599  0.00  0.00    -0.061 A 
ENDBRANCH   9  13
ENDBRANCH   2   9
ENDBRANCH   1   5
BRANCH   1  16
ATOM     16  N   UNL     1      46.389 -18.148 -35.029  0.00  0.00    -0.327 N 
ATOM     17  H   UNL     1      47.047 -18.449 -34.361  0.00  0.00    +0.000 HD
BRANCH  16  18
ATOM     18  C   UNL     1      46.294 -18.754 -36.289  0.00  0.00    +0.141 A 
ATOM     19  C   UNL     1      46.044 -17.946 -37.388  0.00  0.00    -0.018 A 
ATOM     20  C   UNL     1      45.892 -18.514 -38.653  0.00  0.00    -0.031 A 
ATOM     21  C   UNL     1      45.987 -19.891 -38.800  0.00  0.00    +0.093 A 
ATOM     22  N   UNL     1      46.213 -20.658 -37.711  0.00  0.00    -0.147 NA
ATOM     23  N   UNL     1      46.356 -20.088 -36.457  0.00  0.00    -0.134 NA
BRANCH  21  24
ATOM     24  C   UNL     1      45.833 -20.594 -40.088  0.00  0.00    +0.002 A 
ATOM     25  C   UNL     1      45.099 -20.045 -41.158  0.00  0.00    -0.053 A 
ATOM     26  C   UNL     1      44.952 -20.730 -42.368  0.00  0.00    -0.061 A 
ATOM     27  C   UNL     1      45.539 -21.980 -42.540  0.00  0.00    -0.062 A 
ATOM     28  C   UNL     1      46.278 -22.541 -41.504  0.00  0.00    -0.061 A 
ATOM     29  C   UNL     1      46.423 -21.855 -40.295  0.00  0.00    -0.053 A 
ENDBRANCH  21  24
ENDBRANCH  16  18
ENDBRANCH   1  16
TORSDOF 6
ENDMDL
MODEL 18
REMARK VINA RESULT:    -6.853      3.418      8.456
REMARK INTER + INTRA:         -10.080
REMARK INTER:                  -8.154
REMARK INTRA:                  -1.926
REMARK UNBOUND:                -0.822
REMARK  Name = cpd271.pdb
REMARK  6 active torsions:
REMARK  status: ('A' for Active; 'I' for Inactive)
REMARK    1  A    between atoms: C_4  and  C_5
REMARK    2  A    between atoms: C_5  and  N_6
REMARK    3  A    between atoms: C_9  and  C_10
REMARK    4  A    between atoms: C_10  and  N_11
REMARK    5  A    between atoms: N_11  and  C_12
REMARK    6  A    between atoms: C_15  and  C_16
REMARK                            x       y       z     vdW  Elec       q    Type
REMARK                         _______ _______ _______ _____ _____    ______ ____
ROOT
ATOM      1  C   UNL     1      32.159 -32.733 -30.626  0.00  0.00    +0.013 C 
ENDROOT
BRANCH   1   5
ATOM      2  N   UNL     1      35.111 -35.437 -31.476  0.00  0.00    -0.298 N 
ATOM      3  C   UNL     1      35.071 -34.360 -30.474  0.00  0.00    -0.000 C 
ATOM      4  C   UNL     1      34.680 -33.012 -31.075  0.00  0.00    -0.036 C 
ATOM      5  C   UNL     1      33.255 -33.053 -31.662  0.00  0.00    -0.023 C 
ATOM      6  C   UNL     1      32.964 -34.437 -32.285  0.00  0.00    -0.036 C 
ATOM      7  C   UNL     1      34.244 -35.194 -32.637  0.00  0.00    -0.000 C 
ATOM      8  H   UNL     1      36.063 -35.439 -31.841  0.00  0.00    +0.000 HD
BRANCH   2   9
ATOM      9  C   UNL     1      34.861 -36.757 -30.871  0.00  0.00    +0.024 C 
BRANCH   9  13
ATOM     10  C   UNL     1      37.749 -37.875 -27.855  0.00  0.00    -0.062 A 
ATOM     11  C   UNL     1      38.158 -37.683 -29.174  0.00  0.00    -0.061 A 
ATOM     12  C   UNL     1      37.228 -37.318 -30.148  0.00  0.00    -0.057 A 
ATOM     13  C   UNL     1      35.877 -37.142 -29.812  0.00  0.00    -0.033 A 
ATOM     14  C   UNL     1      35.478 -37.338 -28.483  0.00  0.00    -0.057 A 
ATOM     15  C   UNL     1      36.410 -37.702 -27.509  0.00  0.00    -0.061 A 
ENDBRANCH   9  13
ENDBRANCH   2   9
ENDBRANCH   1   5
BRANCH   1  16
ATOM     16  N   UNL     1      31.284 -33.866 -30.331  0.00  0.00    -0.327 N 
ATOM     17  H   UNL     1      30.502 -34.072 -30.894  0.00  0.00    +0.000 HD
BRANCH  16  18
ATOM     18  C   UNL     1      31.606 -34.645 -29.211  0.00  0.00    +0.141 A 
ATOM     19  C   UNL     1      31.924 -33.994 -28.029  0.00  0.00    -0.018 A 
ATOM     20  C   UNL     1      32.300 -34.730 -26.905  0.00  0.00    -0.031 A 
ATOM     21  C   UNL     1      32.358 -36.114 -26.983  0.00  0.00    +0.093 A 
ATOM     22  N   UNL     1      32.061 -36.724 -28.151  0.00  0.00    -0.147 NA
ATOM     23  N   UNL     1      31.696 -35.987 -29.265  0.00  0.00    -0.134 NA
BRANCH  21  24
ATOM     24  C   UNL     1      32.752 -36.986 -25.860  0.00  0.00    +0.002 A 
ATOM     25  C   UNL     1      33.043 -36.473 -24.580  0.00  0.00    -0.053 A 
ATOM     26  C   UNL     1      33.427 -37.312 -23.529  0.00  0.00    -0.061 A 
ATOM     27  C   UNL     1      33.527 -38.685 -23.730  0.00  0.00    -0.062 A 
ATOM     28  C   UNL     1      33.236 -39.220 -24.981  0.00  0.00    -0.061 A 
ATOM     29  C   UNL     1      32.852 -38.380 -26.030  0.00  0.00    -0.053 A 
ENDBRANCH  21  24
ENDBRANCH  16  18
ENDBRANCH   1  16
TORSDOF 6
ENDMDL
MODEL 19
REMARK VINA RESULT:    -6.821     16.481     18.758
REMARK INTER + INTRA:         -10.036
REMARK INTER:                  -8.671
REMARK INTRA:                  -1.365
REMARK UNBOUND:                -0.822
REMARK  Name = cpd271.pdb
REMARK  6 active torsions:
REMARK  status: ('A' for Active; 'I' for Inactive)
REMARK    1  A    between atoms: C_4  and  C_5
REMARK    2  A    between atoms: C_5  and  N_6
REMARK    3  A    between atoms: C_9  and  C_10
REMARK    4  A    between atoms: C_10  and  N_11
REMARK    5  A    between atoms: N_11  and  C_12
REMARK    6  A    between atoms: C_15  and  C_16
REMARK                            x       y       z     vdW  Elec       q    Type
REMARK                         _______ _______ _______ _____ _____    ______ ____
ROOT
ATOM      1  C   UNL     1      43.006 -20.671 -41.208  0.00  0.00    +0.013 C 
ENDROOT
BRANCH   1   5
ATOM      2  N   UNL     1      46.601 -20.359 -39.277  0.00  0.00    -0.298 N 
ATOM      3  C   UNL     1      45.584 -19.334 -39.560  0.00  0.00    -0.000 C 
ATOM      4  C   UNL     1      45.178 -19.299 -41.032  0.00  0.00    -0.036 C 
ATOM      5  C   UNL     1      44.526 -20.627 -41.464  0.00  0.00    -0.023 C 
ATOM      6  C   UNL     1      45.190 -21.819 -40.739  0.00  0.00    -0.036 C 
ATOM      7  C   UNL     1      46.588 -21.480 -40.227  0.00  0.00    -0.000 C 
ATOM      8  H   UNL     1      47.502 -19.899 -39.408  0.00  0.00    +0.000 HD
BRANCH   2   9
ATOM      9  C   UNL     1      46.535 -20.823 -37.880  0.00  0.00    +0.024 C 
BRANCH   9  13
ATOM     10  C   UNL     1      46.355 -17.624 -34.980  0.00  0.00    -0.062 A 
ATOM     11  C   UNL     1      47.494 -17.787 -35.766  0.00  0.00    -0.061 A 
ATOM     12  C   UNL     1      47.553 -18.817 -36.706  0.00  0.00    -0.057 A 
ATOM     13  C   UNL     1      46.471 -19.696 -36.868  0.00  0.00    -0.033 A 
ATOM     14  C   UNL     1      45.331 -19.521 -36.071  0.00  0.00    -0.057 A 
ATOM     15  C   UNL     1      45.274 -18.489 -35.132  0.00  0.00    -0.061 A 
ENDBRANCH   9  13
ENDBRANCH   2   9
ENDBRANCH   1   5
BRANCH   1  16
ATOM     16  N   UNL     1      42.549 -21.927 -40.615  0.00  0.00    -0.327 N 
ATOM     17  H   UNL     1      42.585 -22.774 -41.115  0.00  0.00    +0.000 HD
BRANCH  16  18
ATOM     18  C   UNL     1      42.058 -21.870 -39.303  0.00  0.00    +0.141 A 
ATOM     19  C   UNL     1      42.317 -20.731 -38.555  0.00  0.00    -0.018 A 
ATOM     20  C   UNL     1      41.890 -20.654 -37.229  0.00  0.00    -0.031 A 
ATOM     21  C   UNL     1      41.212 -21.727 -36.666  0.00  0.00    +0.093 A 
ATOM     22  N   UNL     1      40.989 -22.832 -37.410  0.00  0.00    -0.147 NA
ATOM     23  N   UNL     1      41.422 -22.905 -38.724  0.00  0.00    -0.134 NA
BRANCH  21  24
ATOM     24  C   UNL     1      40.727 -21.753 -35.273  0.00  0.00    +0.002 A 
ATOM     25  C   UNL     1      39.519 -22.382 -34.913  0.00  0.00    -0.053 A 
ATOM     26  C   UNL     1      39.066 -22.386 -33.590  0.00  0.00    -0.061 A 
ATOM     27  C   UNL     1      39.813 -21.766 -32.593  0.00  0.00    -0.062 A 
ATOM     28  C   UNL     1      41.015 -21.146 -32.918  0.00  0.00    -0.061 A 
ATOM     29  C   UNL     1      41.465 -21.143 -34.242  0.00  0.00    -0.053 A 
ENDBRANCH  21  24
ENDBRANCH  16  18
ENDBRANCH   1  16
TORSDOF 6
ENDMDL
MODEL 20
REMARK VINA RESULT:    -6.481     16.060     17.221
REMARK INTER + INTRA:          -9.577
REMARK INTER:                  -8.174
REMARK INTRA:                  -1.403
REMARK UNBOUND:                -0.822
REMARK  Name = cpd271.pdb
REMARK  6 active torsions:
REMARK  status: ('A' for Active; 'I' for Inactive)
REMARK    1  A    between atoms: C_4  and  C_5
REMARK    2  A    between atoms: C_5  and  N_6
REMARK    3  A    between atoms: C_9  and  C_10
REMARK    4  A    between atoms: C_10  and  N_11
REMARK    5  A    between atoms: N_11  and  C_12
REMARK    6  A    between atoms: C_15  and  C_16
REMARK                            x       y       z     vdW  Elec       q    Type
REMARK                         _______ _______ _______ _____ _____    ______ ____
ROOT
ATOM      1  C   UNL     1      39.569 -23.044 -35.621  0.00  0.00    +0.013 C 
ENDROOT
BRANCH   1   5
ATOM      2  N   UNL     1      40.431 -19.726 -33.384  0.00  0.00    -0.298 N 
ATOM      3  C   UNL     1      41.178 -20.984 -33.544  0.00  0.00    -0.000 C 
ATOM      4  C   UNL     1      40.314 -22.218 -33.298  0.00  0.00    -0.036 C 
ATOM      5  C   UNL     1      39.168 -22.312 -34.325  0.00  0.00    -0.023 C 
ATOM      6  C   UNL     1      38.648 -20.903 -34.688  0.00  0.00    -0.036 C 
ATOM      7  C   UNL     1      38.987 -19.867 -33.618  0.00  0.00    -0.000 C 
ATOM      8  H   UNL     1      40.526 -19.471 -32.402  0.00  0.00    +0.000 HD
BRANCH   2   9
ATOM      9  C   UNL     1      41.014 -18.638 -34.188  0.00  0.00    +0.024 C 
BRANCH   9  13
ATOM     10  C   UNL     1      45.301 -18.264 -33.780  0.00  0.00    -0.062 A 
ATOM     11  C   UNL     1      44.476 -18.071 -32.673  0.00  0.00    -0.061 A 
ATOM     12  C   UNL     1      43.092 -18.195 -32.802  0.00  0.00    -0.057 A 
ATOM     13  C   UNL     1      42.518 -18.513 -34.042  0.00  0.00    -0.033 A 
ATOM     14  C   UNL     1      43.358 -18.706 -35.147  0.00  0.00    -0.057 A 
ATOM     15  C   UNL     1      44.742 -18.582 -35.017  0.00  0.00    -0.061 A 
ENDBRANCH   9  13
ENDBRANCH   2   9
ENDBRANCH   1   5
BRANCH   1  16
ATOM     16  N   UNL     1      39.310 -22.271 -36.834  0.00  0.00    -0.327 N 
ATOM     17  H   UNL     1      38.412 -21.923 -37.040  0.00  0.00    +0.000 HD
BRANCH  16  18
ATOM     18  C   UNL     1      40.397 -22.046 -37.691  0.00  0.00    +0.141 A 
ATOM     19  C   UNL     1      41.525 -21.429 -37.171  0.00  0.00    -0.018 A 
ATOM     20  C   UNL     1      42.609 -21.141 -38.001  0.00  0.00    -0.031 A 
ATOM     21  C   UNL     1      42.546 -21.472 -39.347  0.00  0.00    +0.093 A 
ATOM     22  N   UNL     1      41.429 -22.056 -39.833  0.00  0.00    -0.147 NA
ATOM     23  N   UNL     1      40.353 -22.332 -39.005  0.00  0.00    -0.134 NA
BRANCH  21  24
ATOM     24  C   UNL     1      43.629 -21.204 -40.312  0.00  0.00    +0.002 A 
ATOM     25  C   UNL     1      44.869 -20.665 -39.915  0.00  0.00    -0.053 A 
ATOM     26  C   UNL     1      45.881 -20.405 -40.845  0.00  0.00    -0.061 A 
ATOM     27  C   UNL     1      45.680 -20.681 -42.193  0.00  0.00    -0.062 A 
ATOM     28  C   UNL     1      44.470 -21.224 -42.612  0.00  0.00    -0.061 A 
ATOM     29  C   UNL     1      43.459 -21.483 -41.681  0.00  0.00    -0.053 A 
ENDBRANCH  21  24
ENDBRANCH  16  18
ENDBRANCH   1  16
TORSDOF 6
ENDMDL
