REMARK  Name = cpd271.pdb
REMARK  6 active torsions:
REMARK  status: ('A' for Active; 'I' for Inactive)
REMARK    1  A    between atoms: C_4  and  C_5
REMARK    2  A    between atoms: C_5  and  N_6
REMARK    3  A    between atoms: C_9  and  C_10
REMARK    4  A    between atoms: C_10  and  N_11
REMARK    5  A    between atoms: N_11  and  C_12
REMARK    6  A    between atoms: C_15  and  C_16
REMARK                            x       y       z     vdW  Elec       q    Type
REMARK                         _______ _______ _______ _____ _____    ______ ____
ROOT
ATOM      1  C   UNL     1      -5.476  -2.053  -1.282  0.00  0.00    +0.013 C 
ENDROOT
BRANCH   1   5
ATOM      2  N   UNL     1      -2.924   0.456   0.704  0.00  0.00    -0.298 N 
ATOM      3  C   UNL     1      -2.805  -0.981   0.411  0.00  0.00    -0.000 C 
ATOM      4  C   UNL     1      -4.039  -1.773   0.837  0.00  0.00    -0.036 C 
ATOM      5  C   UNL     1      -5.291  -1.318   0.061  0.00  0.00    -0.023 C 
ATOM      6  C   UNL     1      -5.242   0.203  -0.205  0.00  0.00    -0.036 C 
ATOM      7  C   UNL     1      -4.313   0.931   0.765  0.00  0.00    -0.000 C 
ATOM      8  H   UNL     1      -2.551   0.578   1.645  0.00  0.00    +0.000 HD
BRANCH   2   9
ATOM      9  C   UNL     1      -2.105   1.270  -0.211  0.00  0.00    +0.024 C 
BRANCH   9  13
ATOM     10  C   UNL     1       2.104   0.298  -0.070  0.00  0.00    -0.062 A 
ATOM     11  C   UNL     1       1.383   0.103  -1.247  0.00  0.00    -0.061 A 
ATOM     12  C   UNL     1       0.025   0.420  -1.296  0.00  0.00    -0.057 A 
ATOM     13  C   UNL     1      -0.627   0.935  -0.165  0.00  0.00    -0.033 A 
ATOM     14  C   UNL     1       0.109   1.127   1.012  0.00  0.00    -0.057 A 
ATOM     15  C   UNL     1       1.468   0.810   1.059  0.00  0.00    -0.061 A 
ENDBRANCH   9  13
ENDBRANCH   2   9
ENDBRANCH   1   5
BRANCH   1  16
ATOM     16  N   UNL     1      -5.706  -3.489  -1.136  0.00  0.00    -0.327 N 
ATOM     17  H   UNL     1      -4.986  -4.143  -1.289  0.00  0.00    +0.000 HD
BRANCH  16  18
ATOM     18  C   UNL     1      -6.997  -3.893  -0.769  0.00  0.00    +0.141 A 
ATOM     19  C   UNL     1      -7.239  -5.249  -0.609  0.00  0.00    -0.018 A 
ATOM     20  C   UNL     1      -8.522  -5.698  -0.294  0.00  0.00    -0.031 A 
ATOM     21  C   UNL     1      -9.551  -4.778  -0.149  0.00  0.00    +0.093 A 
ATOM     22  N   UNL     1      -9.294  -3.464  -0.328  0.00  0.00    -0.147 NA
ATOM     23  N   UNL     1      -8.019  -3.026  -0.648  0.00  0.00    -0.134 NA
BRANCH  21  24
ATOM     24  C   UNL     1     -10.943  -5.145   0.173  0.00  0.00    +0.002 A 
ATOM     25  C   UNL     1     -11.260  -6.291   0.929  0.00  0.00    -0.053 A 
ATOM     26  C   UNL     1     -12.586  -6.632   1.214  0.00  0.00    -0.061 A 
ATOM     27  C   UNL     1     -13.628  -5.833   0.754  0.00  0.00    -0.062 A 
ATOM     28  C   UNL     1     -13.344  -4.690   0.014  0.00  0.00    -0.061 A 
ATOM     29  C   UNL     1     -12.018  -4.351  -0.270  0.00  0.00    -0.053 A 
ENDBRANCH  21  24
ENDBRANCH  16  18
ENDBRANCH   1  16
TORSDOF 6
