MODEL 1
REMARK VINA RESULT:    -8.358      0.000      0.000
REMARK INTER + INTRA:         -11.644
REMARK INTER:                 -10.801
REMARK INTRA:                  -0.843
REMARK UNBOUND:                -0.843
REMARK  Name = cpd92.pdb
REMARK  5 active torsions:
REMARK  status: ('A' for Active; 'I' for Inactive)
REMARK    1  A    between atoms: C_2  and  C_3
REMARK    2  A    between atoms: C_2  and  C_26
REMARK    3  A    between atoms: C_6  and  C_7
REMARK    4  A    between atoms: C_7  and  N_8
REMARK    5  A    between atoms: N_8  and  C_9
REMARK                            x       y       z     vdW  Elec       q    Type
REMARK                         _______ _______ _______ _____ _____    ______ ____
ROOT
ATOM      1  C   UNL A   1      36.967 -36.655 -30.596  0.00  0.00    +0.043 A 
ATOM      2  C   UNL A   1      36.099 -37.225 -29.629  0.00  0.00    -0.005 A 
ATOM      3  C   UNL A   1      36.682 -37.988 -28.619  0.00  0.00    +0.047 A 
ATOM      4  N   UNL A   1      38.017 -38.161 -28.509  0.00  0.00    -0.251 NA
ATOM      5  C   UNL A   1      38.835 -37.627 -29.419  0.00  0.00    +0.074 A 
ATOM      6  C   UNL A   1      40.187 -37.868 -29.218  0.00  0.00    -0.036 A 
ATOM      7  C   UNL A   1      41.163 -37.402 -30.090  0.00  0.00    -0.058 A 
ATOM      8  C   UNL A   1      40.773 -36.689 -31.208  0.00  0.00    -0.043 A 
ATOM      9  C   UNL A   1      39.414 -36.433 -31.436  0.00  0.00    +0.052 A 
ATOM     10 CL   UNL A   1      39.087 -35.616 -32.932  0.00  0.00    -0.083 Cl
ATOM     11  C   UNL A   1      38.394 -36.870 -30.523  0.00  0.00    +0.040 A 
ATOM     12  C   UNL A   1      35.869 -38.672 -27.549  0.00  0.00    -0.010 C 
ATOM     13  C   UNL A   1      35.176 -37.691 -26.607  0.00  0.00    -0.048 C 
ATOM     14  C   UNL A   1      33.887 -37.107 -27.180  0.00  0.00    -0.052 C 
ATOM     15  C   UNL A   1      34.076 -36.257 -28.435  0.00  0.00    -0.049 C 
ATOM     16  C   UNL A   1      34.598 -37.041 -29.643  0.00  0.00    -0.024 C 
ENDROOT
BRANCH   1  17
ATOM     17  N   UNL A   1      36.445 -35.767 -31.576  0.00  0.00    -0.338 N 
ATOM     18  H   UNL A   1      36.205 -36.045 -32.490  0.00  0.00    +0.000 HD
BRANCH  17  19
ATOM     19  C   UNL A   1      36.305 -34.392 -31.080  0.00  0.00    +0.041 C 
BRANCH  19  23
ATOM     20  C   UNL A   1      32.737 -32.860 -30.342  0.00  0.00    +0.064 A 
ATOM     21  C   UNL A   1      32.611 -33.620 -31.492  0.00  0.00    -0.044 A 
ATOM     22  C   UNL A   1      33.837 -34.242 -31.874  0.00  0.00    -0.049 A 
ATOM     23  C   UNL A   1      34.870 -33.944 -31.009  0.00  0.00    +0.007 A 
ATOM     24  S   UNL A   1      34.342 -32.928 -29.739  0.00  0.00    -0.088 S 
BRANCH  20  26
ATOM     25  O   UNL A   1      31.214 -32.430 -28.570  0.00  0.00    -0.282 OA
ATOM     26  C   UNL A   1      31.741 -32.061 -29.625  0.00  0.00    +0.272 C 
BRANCH  26  27
ATOM     27  C   UNL A   1      31.372 -30.725 -30.268  0.00  0.00    +0.456 C 
ATOM     28  F   UNL A   1      30.545 -29.978 -29.482  0.00  0.00    -0.163 F 
ATOM     29  F   UNL A   1      30.738 -30.855 -31.467  0.00  0.00    -0.163 F 
ATOM     30  F   UNL A   1      32.467 -29.943 -30.504  0.00  0.00    -0.163 F 
ENDBRANCH  26  27
ENDBRANCH  20  26
ENDBRANCH  19  23
ENDBRANCH  17  19
ENDBRANCH   1  17
TORSDOF 5
ENDMDL
MODEL 2
REMARK VINA RESULT:    -8.294      4.848      7.518
REMARK INTER + INTRA:         -11.562
REMARK INTER:                 -11.297
REMARK INTRA:                  -0.265
REMARK UNBOUND:                -0.843
REMARK  Name = cpd92.pdb
REMARK  5 active torsions:
REMARK  status: ('A' for Active; 'I' for Inactive)
REMARK    1  A    between atoms: C_2  and  C_3
REMARK    2  A    between atoms: C_2  and  C_26
REMARK    3  A    between atoms: C_6  and  C_7
REMARK    4  A    between atoms: C_7  and  N_8
REMARK    5  A    between atoms: N_8  and  C_9
REMARK                            x       y       z     vdW  Elec       q    Type
REMARK                         _______ _______ _______ _____ _____    ______ ____
ROOT
ATOM      1  C   UNL A   1      37.389 -36.771 -29.398  0.00  0.00    +0.043 A 
ATOM      2  C   UNL A   1      38.452 -36.582 -30.319  0.00  0.00    -0.005 A 
ATOM      3  C   UNL A   1      38.299 -35.578 -31.273  0.00  0.00    +0.047 A 
ATOM      4  N   UNL A   1      37.217 -34.770 -31.319  0.00  0.00    -0.251 NA
ATOM      5  C   UNL A   1      36.216 -34.948 -30.455  0.00  0.00    +0.074 A 
ATOM      6  C   UNL A   1      35.149 -34.069 -30.590  0.00  0.00    -0.036 A 
ATOM      7  C   UNL A   1      34.021 -34.139 -29.783  0.00  0.00    -0.058 A 
ATOM      8  C   UNL A   1      33.947 -35.132 -28.825  0.00  0.00    -0.043 A 
ATOM      9  C   UNL A   1      35.009 -36.033 -28.667  0.00  0.00    +0.052 A 
ATOM     10 CL   UNL A   1      34.717 -37.277 -27.493  0.00  0.00    -0.083 Cl
ATOM     11  C   UNL A   1      36.202 -35.950 -29.464  0.00  0.00    +0.040 A 
ATOM     12  C   UNL A   1      39.340 -35.295 -32.326  0.00  0.00    -0.010 C 
ATOM     13  C   UNL A   1      40.642 -34.747 -31.746  0.00  0.00    -0.048 C 
ATOM     14  C   UNL A   1      41.552 -35.828 -31.169  0.00  0.00    -0.052 C 
ATOM     15  C   UNL A   1      40.969 -36.581 -29.975  0.00  0.00    -0.049 C 
ATOM     16  C   UNL A   1      39.722 -37.404 -30.309  0.00  0.00    -0.024 C 
ENDROOT
BRANCH   1  17
ATOM     17  N   UNL A   1      37.539 -37.695 -28.328  0.00  0.00    -0.338 N 
ATOM     18  H   UNL A   1      37.410 -37.457 -27.381  0.00  0.00    +0.000 HD
BRANCH  17  19
ATOM     19  C   UNL A   1      37.906 -39.041 -28.786  0.00  0.00    +0.041 C 
BRANCH  19  23
ATOM     20  C   UNL A   1      34.758 -40.814 -30.390  0.00  0.00    +0.064 A 
ATOM     21  C   UNL A   1      35.028 -41.480 -29.207  0.00  0.00    -0.044 A 
ATOM     22  C   UNL A   1      36.149 -40.934 -28.515  0.00  0.00    -0.049 A 
ATOM     23  C   UNL A   1      36.711 -39.866 -29.183  0.00  0.00    +0.007 A 
ATOM     24  S   UNL A   1      35.867 -39.526 -30.631  0.00  0.00    -0.088 S 
BRANCH  20  26
ATOM     25  O   UNL A   1      32.510 -41.024 -31.132  0.00  0.00    -0.282 OA
ATOM     26  C   UNL A   1      33.718 -41.052 -31.393  0.00  0.00    +0.272 C 
BRANCH  26  27
ATOM     27  C   UNL A   1      34.213 -41.356 -32.806  0.00  0.00    +0.456 C 
ATOM     28  F   UNL A   1      33.509 -42.360 -33.402  0.00  0.00    -0.163 F 
ATOM     29  F   UNL A   1      35.522 -41.734 -32.855  0.00  0.00    -0.163 F 
ATOM     30  F   UNL A   1      34.102 -40.279 -33.638  0.00  0.00    -0.163 F 
ENDBRANCH  26  27
ENDBRANCH  20  26
ENDBRANCH  19  23
ENDBRANCH  17  19
ENDBRANCH   1  17
TORSDOF 5
ENDMDL
MODEL 3
REMARK VINA RESULT:    -8.222      1.782      2.025
REMARK INTER + INTRA:         -11.468
REMARK INTER:                 -10.419
REMARK INTRA:                  -1.049
REMARK UNBOUND:                -0.843
REMARK  Name = cpd92.pdb
REMARK  5 active torsions:
REMARK  status: ('A' for Active; 'I' for Inactive)
REMARK    1  A    between atoms: C_2  and  C_3
REMARK    2  A    between atoms: C_2  and  C_26
REMARK    3  A    between atoms: C_6  and  C_7
REMARK    4  A    between atoms: C_7  and  N_8
REMARK    5  A    between atoms: N_8  and  C_9
REMARK                            x       y       z     vdW  Elec       q    Type
REMARK                         _______ _______ _______ _____ _____    ______ ____
ROOT
ATOM      1  C   UNL A   1      36.311 -36.527 -30.216  0.00  0.00    +0.043 A 
ATOM      2  C   UNL A   1      35.359 -37.003 -29.280  0.00  0.00    -0.005 A 
ATOM      3  C   UNL A   1      35.826 -37.825 -28.256  0.00  0.00    +0.047 A 
ATOM      4  N   UNL A   1      37.131 -38.139 -28.106  0.00  0.00    -0.251 NA
ATOM      5  C   UNL A   1      38.029 -37.693 -28.989  0.00  0.00    +0.074 A 
ATOM      6  C   UNL A   1      39.342 -38.077 -28.748  0.00  0.00    -0.036 A 
ATOM      7  C   UNL A   1      40.387 -37.715 -29.587  0.00  0.00    -0.058 A 
ATOM      8  C   UNL A   1      40.110 -36.963 -30.713  0.00  0.00    -0.043 A 
ATOM      9  C   UNL A   1      38.793 -36.564 -30.981  0.00  0.00    +0.052 A 
ATOM     10 CL   UNL A   1      38.600 -35.714 -32.481  0.00  0.00    -0.083 Cl
ATOM     11  C   UNL A   1      37.705 -36.892 -30.102  0.00  0.00    +0.040 A 
ATOM     12  C   UNL A   1      34.913 -38.422 -27.215  0.00  0.00    -0.010 C 
ATOM     13  C   UNL A   1      34.299 -37.374 -26.290  0.00  0.00    -0.048 C 
ATOM     14  C   UNL A   1      33.097 -36.656 -26.898  0.00  0.00    -0.052 C 
ATOM     15  C   UNL A   1      33.413 -35.828 -28.143  0.00  0.00    -0.049 C 
ATOM     16  C   UNL A   1      33.886 -36.660 -29.339  0.00  0.00    -0.024 C 
ENDROOT
BRANCH   1  17
ATOM     17  N   UNL A   1      35.918 -35.587 -31.208  0.00  0.00    -0.338 N 
ATOM     18  H   UNL A   1      35.547 -35.842 -32.084  0.00  0.00    +0.000 HD
BRANCH  17  19
ATOM     19  C   UNL A   1      36.123 -34.195 -30.785  0.00  0.00    +0.041 C 
BRANCH  19  23
ATOM     20  C   UNL A   1      32.523 -32.567 -30.906  0.00  0.00    +0.064 A 
ATOM     21  C   UNL A   1      33.162 -32.035 -29.800  0.00  0.00    -0.044 A 
ATOM     22  C   UNL A   1      34.487 -32.537 -29.638  0.00  0.00    -0.049 A 
ATOM     23  C   UNL A   1      34.830 -33.441 -30.621  0.00  0.00    +0.007 A 
ATOM     24  S   UNL A   1      33.553 -33.660 -31.737  0.00  0.00    -0.088 S 
BRANCH  20  26
ATOM     25  O   UNL A   1      30.740 -31.206 -31.689  0.00  0.00    -0.282 OA
ATOM     26  C   UNL A   1      31.173 -32.332 -31.422  0.00  0.00    +0.272 C 
BRANCH  26  27
ATOM     27  C   UNL A   1      30.305 -33.576 -31.607  0.00  0.00    +0.456 C 
ATOM     28  F   UNL A   1      30.477 -34.486 -30.605  0.00  0.00    -0.163 F 
ATOM     29  F   UNL A   1      30.552 -34.244 -32.769  0.00  0.00    -0.163 F 
ATOM     30  F   UNL A   1      28.972 -33.282 -31.618  0.00  0.00    -0.163 F 
ENDBRANCH  26  27
ENDBRANCH  20  26
ENDBRANCH  19  23
ENDBRANCH  17  19
ENDBRANCH   1  17
TORSDOF 5
ENDMDL
MODEL 4
REMARK VINA RESULT:    -8.085      5.729      7.688
REMARK INTER + INTRA:         -11.290
REMARK INTER:                 -10.399
REMARK INTRA:                  -0.892
REMARK UNBOUND:                -0.843
REMARK  Name = cpd92.pdb
REMARK  5 active torsions:
REMARK  status: ('A' for Active; 'I' for Inactive)
REMARK    1  A    between atoms: C_2  and  C_3
REMARK    2  A    between atoms: C_2  and  C_26
REMARK    3  A    between atoms: C_6  and  C_7
REMARK    4  A    between atoms: C_7  and  N_8
REMARK    5  A    between atoms: N_8  and  C_9
REMARK                            x       y       z     vdW  Elec       q    Type
REMARK                         _______ _______ _______ _____ _____    ______ ____
ROOT
ATOM      1  C   UNL A   1      34.884 -35.813 -29.037  0.00  0.00    +0.043 A 
ATOM      2  C   UNL A   1      34.050 -34.819 -29.610  0.00  0.00    -0.005 A 
ATOM      3  C   UNL A   1      34.571 -34.085 -30.674  0.00  0.00    +0.047 A 
ATOM      4  N   UNL A   1      35.797 -34.315 -31.193  0.00  0.00    -0.251 NA
ATOM      5  C   UNL A   1      36.583 -35.249 -30.654  0.00  0.00    +0.074 A 
ATOM      6  C   UNL A   1      37.824 -35.403 -31.257  0.00  0.00    -0.036 A 
ATOM      7  C   UNL A   1      38.766 -36.316 -30.799  0.00  0.00    -0.058 A 
ATOM      8  C   UNL A   1      38.465 -37.084 -29.690  0.00  0.00    -0.043 A 
ATOM      9  C   UNL A   1      37.220 -36.948 -29.061  0.00  0.00    +0.052 A 
ATOM     10 CL   UNL A   1      37.040 -37.910 -27.628  0.00  0.00    -0.083 Cl
ATOM     11  C   UNL A   1      36.217 -36.040 -29.547  0.00  0.00    +0.040 A 
ATOM     12  C   UNL A   1      33.799 -32.980 -31.351  0.00  0.00    -0.010 C 
ATOM     13  C   UNL A   1      32.574 -33.485 -32.109  0.00  0.00    -0.048 C 
ATOM     14  C   UNL A   1      31.368 -33.745 -31.210  0.00  0.00    -0.052 C 
ATOM     15  C   UNL A   1      31.573 -34.848 -30.173  0.00  0.00    -0.049 C 
ATOM     16  C   UNL A   1      32.646 -34.528 -29.129  0.00  0.00    -0.024 C 
ENDROOT
BRANCH   1  17
ATOM     17  N   UNL A   1      34.366 -36.676 -28.033  0.00  0.00    -0.338 N 
ATOM     18  H   UNL A   1      34.600 -36.604 -27.079  0.00  0.00    +0.000 HD
BRANCH  17  19
ATOM     19  C   UNL A   1      33.445 -37.686 -28.571  0.00  0.00    +0.041 C 
BRANCH  19  23
ATOM     20  C   UNL A   1      34.852 -41.341 -28.035  0.00  0.00    +0.064 A 
ATOM     21  C   UNL A   1      35.087 -41.017 -29.361  0.00  0.00    -0.044 A 
ATOM     22  C   UNL A   1      34.629 -39.707 -29.693  0.00  0.00    -0.049 A 
ATOM     23  C   UNL A   1      34.055 -39.062 -28.617  0.00  0.00    +0.007 A 
ATOM     24  S   UNL A   1      34.091 -40.040 -27.215  0.00  0.00    -0.088 S 
BRANCH  20  26
ATOM     25  O   UNL A   1      36.181 -42.720 -26.629  0.00  0.00    -0.282 OA
ATOM     26  C   UNL A   1      35.152 -42.569 -27.296  0.00  0.00    +0.272 C 
BRANCH  26  27
ATOM     27  C   UNL A   1      34.110 -43.681 -27.404  0.00  0.00    +0.456 C 
ATOM     28  F   UNL A   1      32.839 -43.228 -27.201  0.00  0.00    -0.163 F 
ATOM     29  F   UNL A   1      34.297 -44.691 -26.509  0.00  0.00    -0.163 F 
ATOM     30  F   UNL A   1      34.103 -44.268 -28.637  0.00  0.00    -0.163 F 
ENDBRANCH  26  27
ENDBRANCH  20  26
ENDBRANCH  19  23
ENDBRANCH  17  19
ENDBRANCH   1  17
TORSDOF 5
ENDMDL
MODEL 5
REMARK VINA RESULT:    -8.028      4.175      5.898
REMARK INTER + INTRA:         -11.217
REMARK INTER:                 -10.047
REMARK INTRA:                  -1.170
REMARK UNBOUND:                -0.843
REMARK  Name = cpd92.pdb
REMARK  5 active torsions:
REMARK  status: ('A' for Active; 'I' for Inactive)
REMARK    1  A    between atoms: C_2  and  C_3
REMARK    2  A    between atoms: C_2  and  C_26
REMARK    3  A    between atoms: C_6  and  C_7
REMARK    4  A    between atoms: C_7  and  N_8
REMARK    5  A    between atoms: N_8  and  C_9
REMARK                            x       y       z     vdW  Elec       q    Type
REMARK                         _______ _______ _______ _____ _____    ______ ____
ROOT
ATOM      1  C   UNL A   1      37.626 -37.043 -29.139  0.00  0.00    +0.043 A 
ATOM      2  C   UNL A   1      36.511 -36.240 -29.490  0.00  0.00    -0.005 A 
ATOM      3  C   UNL A   1      36.650 -35.402 -30.594  0.00  0.00    +0.047 A 
ATOM      4  N   UNL A   1      37.769 -35.364 -31.350  0.00  0.00    -0.251 NA
ATOM      5  C   UNL A   1      38.821 -36.118 -31.020  0.00  0.00    +0.074 A 
ATOM      6  C   UNL A   1      39.923 -36.002 -31.856  0.00  0.00    -0.036 A 
ATOM      7  C   UNL A   1      41.102 -36.701 -31.634  0.00  0.00    -0.058 A 
ATOM      8  C   UNL A   1      41.190 -37.527 -30.529  0.00  0.00    -0.043 A 
ATOM      9  C   UNL A   1      40.093 -37.662 -29.667  0.00  0.00    +0.052 A 
ATOM     10 CL   UNL A   1      40.400 -38.654 -28.277  0.00  0.00    -0.083 Cl
ATOM     11  C   UNL A   1      38.850 -36.980 -29.905  0.00  0.00    +0.040 A 
ATOM     12  C   UNL A   1      35.551 -34.477 -31.053  0.00  0.00    -0.010 C 
ATOM     13  C   UNL A   1      34.330 -35.221 -31.588  0.00  0.00    -0.048 C 
ATOM     14  C   UNL A   1      33.404 -35.737 -30.490  0.00  0.00    -0.052 C 
ATOM     15  C   UNL A   1      34.030 -36.783 -29.569  0.00  0.00    -0.049 C 
ATOM     16  C   UNL A   1      35.201 -36.256 -28.734  0.00  0.00    -0.024 C 
ENDROOT
BRANCH   1  17
ATOM     17  N   UNL A   1      37.504 -38.005 -28.100  0.00  0.00    -0.338 N 
ATOM     18  H   UNL A   1      37.423 -37.771 -27.147  0.00  0.00    +0.000 HD
BRANCH  17  19
ATOM     19  C   UNL A   1      37.514 -39.386 -28.600  0.00  0.00    +0.041 C 
BRANCH  19  23
ATOM     20  C   UNL A   1      34.287 -40.433 -30.630  0.00  0.00    +0.064 A 
ATOM     21  C   UNL A   1      33.974 -40.571 -29.289  0.00  0.00    -0.044 A 
ATOM     22  C   UNL A   1      35.059 -40.217 -28.433  0.00  0.00    -0.049 A 
ATOM     23  C   UNL A   1      36.176 -39.818 -29.138  0.00  0.00    +0.007 A 
ATOM     24  S   UNL A   1      35.894 -39.862 -30.824  0.00  0.00    -0.088 S 
BRANCH  20  26
ATOM     25  O   UNL A   1      33.330 -41.824 -32.302  0.00  0.00    -0.282 OA
ATOM     26  C   UNL A   1      33.477 -40.695 -31.821  0.00  0.00    +0.272 C 
BRANCH  26  27
ATOM     27  C   UNL A   1      32.819 -39.473 -32.459  0.00  0.00    +0.456 C 
ATOM     28  F   UNL A   1      31.892 -39.810 -33.401  0.00  0.00    -0.163 F 
ATOM     29  F   UNL A   1      33.702 -38.641 -33.081  0.00  0.00    -0.163 F 
ATOM     30  F   UNL A   1      32.158 -38.703 -31.546  0.00  0.00    -0.163 F 
ENDBRANCH  26  27
ENDBRANCH  20  26
ENDBRANCH  19  23
ENDBRANCH  17  19
ENDBRANCH   1  17
TORSDOF 5
ENDMDL
MODEL 6
REMARK VINA RESULT:    -7.982      5.111      7.761
REMARK INTER + INTRA:         -11.157
REMARK INTER:                 -10.437
REMARK INTRA:                  -0.721
REMARK UNBOUND:                -0.843
REMARK  Name = cpd92.pdb
REMARK  5 active torsions:
REMARK  status: ('A' for Active; 'I' for Inactive)
REMARK    1  A    between atoms: C_2  and  C_3
REMARK    2  A    between atoms: C_2  and  C_26
REMARK    3  A    between atoms: C_6  and  C_7
REMARK    4  A    between atoms: C_7  and  N_8
REMARK    5  A    between atoms: N_8  and  C_9
REMARK                            x       y       z     vdW  Elec       q    Type
REMARK                         _______ _______ _______ _____ _____    ______ ____
ROOT
ATOM      1  C   UNL A   1      34.293 -34.992 -29.541  0.00  0.00    +0.043 A 
ATOM      2  C   UNL A   1      34.165 -36.045 -28.599  0.00  0.00    -0.005 A 
ATOM      3  C   UNL A   1      32.874 -36.450 -28.266  0.00  0.00    +0.047 A 
ATOM      4  N   UNL A   1      31.769 -35.916 -28.830  0.00  0.00    -0.251 NA
ATOM      5  C   UNL A   1      31.887 -34.924 -29.716  0.00  0.00    +0.074 A 
ATOM      6  C   UNL A   1      30.692 -34.442 -30.232  0.00  0.00    -0.036 A 
ATOM      7  C   UNL A   1      30.645 -33.395 -31.145  0.00  0.00    -0.058 A 
ATOM      8  C   UNL A   1      31.828 -32.799 -31.537  0.00  0.00    -0.043 A 
ATOM      9  C   UNL A   1      33.049 -33.265 -31.030  0.00  0.00    +0.052 A 
ATOM     10 CL   UNL A   1      34.428 -32.346 -31.543  0.00  0.00    -0.083 Cl
ATOM     11  C   UNL A   1      33.121 -34.374 -30.119  0.00  0.00    +0.040 A 
ATOM     12  C   UNL A   1      32.601 -37.537 -27.257  0.00  0.00    -0.010 C 
ATOM     13  C   UNL A   1      33.071 -38.914 -27.721  0.00  0.00    -0.048 C 
ATOM     14  C   UNL A   1      34.567 -39.142 -27.527  0.00  0.00    -0.052 C 
ATOM     15  C   UNL A   1      35.464 -38.213 -28.344  0.00  0.00    -0.049 C 
ATOM     16  C   UNL A   1      35.346 -36.737 -27.956  0.00  0.00    -0.024 C 
ENDROOT
BRANCH   1  17
ATOM     17  N   UNL A   1      35.580 -34.619 -30.013  0.00  0.00    -0.338 N 
ATOM     18  H   UNL A   1      36.103 -33.872 -29.639  0.00  0.00    +0.000 HD
BRANCH  17  19
ATOM     19  C   UNL A   1      36.049 -35.466 -31.117  0.00  0.00    +0.041 C 
BRANCH  19  23
ATOM     20  C   UNL A   1      39.905 -36.324 -30.980  0.00  0.00    +0.064 A 
ATOM     21  C   UNL A   1      39.794 -35.101 -31.619  0.00  0.00    -0.044 A 
ATOM     22  C   UNL A   1      38.441 -34.664 -31.733  0.00  0.00    -0.049 A 
ATOM     23  C   UNL A   1      37.550 -35.561 -31.180  0.00  0.00    +0.007 A 
ATOM     24  S   UNL A   1      38.361 -36.913 -30.517  0.00  0.00    -0.088 S 
BRANCH  20  26
ATOM     25  O   UNL A   1      41.276 -37.659 -29.572  0.00  0.00    -0.282 OA
ATOM     26  C   UNL A   1      41.092 -37.124 -30.670  0.00  0.00    +0.272 C 
BRANCH  26  27
ATOM     27  C   UNL A   1      42.118 -37.255 -31.795  0.00  0.00    +0.456 C 
ATOM     28  F   UNL A   1      41.538 -37.280 -33.030  0.00  0.00    -0.163 F 
ATOM     29  F   UNL A   1      42.876 -38.384 -31.711  0.00  0.00    -0.163 F 
ATOM     30  F   UNL A   1      42.998 -36.211 -31.818  0.00  0.00    -0.163 F 
ENDBRANCH  26  27
ENDBRANCH  20  26
ENDBRANCH  19  23
ENDBRANCH  17  19
ENDBRANCH   1  17
TORSDOF 5
ENDMDL
MODEL 7
REMARK VINA RESULT:    -7.834      1.895      4.125
REMARK INTER + INTRA:         -10.967
REMARK INTER:                 -10.542
REMARK INTRA:                  -0.425
REMARK UNBOUND:                -0.843
REMARK  Name = cpd92.pdb
REMARK  5 active torsions:
REMARK  status: ('A' for Active; 'I' for Inactive)
REMARK    1  A    between atoms: C_2  and  C_3
REMARK    2  A    between atoms: C_2  and  C_26
REMARK    3  A    between atoms: C_6  and  C_7
REMARK    4  A    between atoms: C_7  and  N_8
REMARK    5  A    between atoms: N_8  and  C_9
REMARK                            x       y       z     vdW  Elec       q    Type
REMARK                         _______ _______ _______ _____ _____    ______ ____
ROOT
ATOM      1  C   UNL A   1      36.905 -36.324 -30.777  0.00  0.00    +0.043 A 
ATOM      2  C   UNL A   1      38.299 -36.102 -30.919  0.00  0.00    -0.005 A 
ATOM      3  C   UNL A   1      39.156 -36.969 -30.243  0.00  0.00    +0.047 A 
ATOM      4  N   UNL A   1      38.713 -38.015 -29.512  0.00  0.00    -0.251 NA
ATOM      5  C   UNL A   1      37.401 -38.224 -29.376  0.00  0.00    +0.074 A 
ATOM      6  C   UNL A   1      37.051 -39.321 -28.600  0.00  0.00    -0.036 A 
ATOM      7  C   UNL A   1      35.727 -39.657 -28.343  0.00  0.00    -0.058 A 
ATOM      8  C   UNL A   1      34.724 -38.861 -28.861  0.00  0.00    -0.043 A 
ATOM      9  C   UNL A   1      35.050 -37.746 -29.646  0.00  0.00    +0.052 A 
ATOM     10 CL   UNL A   1      33.682 -36.797 -30.133  0.00  0.00    -0.083 Cl
ATOM     11  C   UNL A   1      36.411 -37.407 -29.958  0.00  0.00    +0.040 A 
ATOM     12  C   UNL A   1      40.656 -36.824 -30.287  0.00  0.00    -0.010 C 
ATOM     13  C   UNL A   1      41.241 -37.092 -31.672  0.00  0.00    -0.048 C 
ATOM     14  C   UNL A   1      41.122 -35.903 -32.622  0.00  0.00    -0.052 C 
ATOM     15  C   UNL A   1      39.687 -35.500 -32.960  0.00  0.00    -0.049 C 
ATOM     16  C   UNL A   1      38.886 -34.989 -31.759  0.00  0.00    -0.024 C 
ENDROOT
BRANCH   1  17
ATOM     17  N   UNL A   1      35.987 -35.551 -31.538  0.00  0.00    -0.338 N 
ATOM     18  H   UNL A   1      35.466 -35.910 -32.293  0.00  0.00    +0.000 HD
BRANCH  17  19
ATOM     19  C   UNL A   1      35.897 -34.159 -31.077  0.00  0.00    +0.041 C 
BRANCH  19  23
ATOM     20  C   UNL A   1      32.415 -32.315 -30.761  0.00  0.00    +0.064 A 
ATOM     21  C   UNL A   1      32.299 -33.201 -31.818  0.00  0.00    -0.044 A 
ATOM     22  C   UNL A   1      33.495 -33.946 -32.042  0.00  0.00    -0.049 A 
ATOM     23  C   UNL A   1      34.497 -33.611 -31.154  0.00  0.00    +0.007 A 
ATOM     24  S   UNL A   1      33.974 -32.413 -30.051  0.00  0.00    -0.088 S 
BRANCH  20  26
ATOM     25  O   UNL A   1      31.320 -30.211 -30.623  0.00  0.00    -0.282 OA
ATOM     26  C   UNL A   1      31.442 -31.369 -30.210  0.00  0.00    +0.272 C 
BRANCH  26  27
ATOM     27  C   UNL A   1      30.576 -31.896 -29.067  0.00  0.00    +0.456 C 
ATOM     28  F   UNL A   1      30.583 -31.069 -27.983  0.00  0.00    -0.163 F 
ATOM     29  F   UNL A   1      30.964 -33.120 -28.610  0.00  0.00    -0.163 F 
ATOM     30  F   UNL A   1      29.266 -32.026 -29.427  0.00  0.00    -0.163 F 
ENDBRANCH  26  27
ENDBRANCH  20  26
ENDBRANCH  19  23
ENDBRANCH  17  19
ENDBRANCH   1  17
TORSDOF 5
ENDMDL
MODEL 8
REMARK VINA RESULT:    -7.788     20.502     21.850
REMARK INTER + INTRA:         -10.907
REMARK INTER:                  -9.762
REMARK INTRA:                  -1.145
REMARK UNBOUND:                -0.843
REMARK  Name = cpd92.pdb
REMARK  5 active torsions:
REMARK  status: ('A' for Active; 'I' for Inactive)
REMARK    1  A    between atoms: C_2  and  C_3
REMARK    2  A    between atoms: C_2  and  C_26
REMARK    3  A    between atoms: C_6  and  C_7
REMARK    4  A    between atoms: C_7  and  N_8
REMARK    5  A    between atoms: N_8  and  C_9
REMARK                            x       y       z     vdW  Elec       q    Type
REMARK                         _______ _______ _______ _____ _____    ______ ____
ROOT
ATOM      1  C   UNL A   1      46.432 -19.235 -39.953  0.00  0.00    +0.043 A 
ATOM      2  C   UNL A   1      45.835 -17.952 -40.054  0.00  0.00    -0.005 A 
ATOM      3  C   UNL A   1      44.939 -17.746 -41.101  0.00  0.00    +0.047 A 
ATOM      4  N   UNL A   1      44.596 -18.717 -41.975  0.00  0.00    -0.251 NA
ATOM      5  C   UNL A   1      45.159 -19.924 -41.883  0.00  0.00    +0.074 A 
ATOM      6  C   UNL A   1      44.743 -20.849 -42.832  0.00  0.00    -0.036 A 
ATOM      7  C   UNL A   1      45.253 -22.140 -42.885  0.00  0.00    -0.058 A 
ATOM      8  C   UNL A   1      46.224 -22.512 -41.974  0.00  0.00    -0.043 A 
ATOM      9  C   UNL A   1      46.662 -21.598 -41.006  0.00  0.00    +0.052 A 
ATOM     10 CL   UNL A   1      47.952 -22.187 -40.006  0.00  0.00    -0.083 Cl
ATOM     11  C   UNL A   1      46.116 -20.272 -40.909  0.00  0.00    +0.040 A 
ATOM     12  C   UNL A   1      44.260 -16.420 -41.337  0.00  0.00    -0.010 C 
ATOM     13  C   UNL A   1      43.276 -16.049 -40.230  0.00  0.00    -0.048 C 
ATOM     14  C   UNL A   1      43.949 -15.457 -38.994  0.00  0.00    -0.052 C 
ATOM     15  C   UNL A   1      44.895 -16.411 -38.266  0.00  0.00    -0.049 C 
ATOM     16  C   UNL A   1      46.119 -16.821 -39.090  0.00  0.00    -0.024 C 
ENDROOT
BRANCH   1  17
ATOM     17  N   UNL A   1      47.257 -19.544 -38.838  0.00  0.00    -0.338 N 
ATOM     18  H   UNL A   1      48.230 -19.394 -38.821  0.00  0.00    +0.000 HD
BRANCH  17  19
ATOM     19  C   UNL A   1      46.502 -20.111 -37.713  0.00  0.00    +0.041 C 
BRANCH  19  23
ATOM     20  C   UNL A   1      46.004 -18.021 -34.395  0.00  0.00    +0.064 A 
ATOM     21  C   UNL A   1      47.333 -17.877 -34.758  0.00  0.00    -0.044 A 
ATOM     22  C   UNL A   1      47.652 -18.583 -35.955  0.00  0.00    -0.049 A 
ATOM     23  C   UNL A   1      46.564 -19.250 -36.479  0.00  0.00    +0.007 A 
ATOM     24  S   UNL A   1      45.166 -19.002 -35.526  0.00  0.00    -0.088 S 
BRANCH  20  26
ATOM     25  O   UNL A   1      45.251 -18.029 -32.142  0.00  0.00    -0.282 OA
ATOM     26  C   UNL A   1      45.275 -17.478 -33.247  0.00  0.00    +0.272 C 
BRANCH  26  27
ATOM     27  C   UNL A   1      44.520 -16.173 -33.496  0.00  0.00    +0.456 C 
ATOM     28  F   UNL A   1      43.185 -16.372 -33.693  0.00  0.00    -0.163 F 
ATOM     29  F   UNL A   1      44.964 -15.486 -34.586  0.00  0.00    -0.163 F 
ATOM     30  F   UNL A   1      44.616 -15.309 -32.443  0.00  0.00    -0.163 F 
ENDBRANCH  26  27
ENDBRANCH  20  26
ENDBRANCH  19  23
ENDBRANCH  17  19
ENDBRANCH   1  17
TORSDOF 5
ENDMDL
MODEL 9
REMARK VINA RESULT:    -7.753      5.836      7.640
REMARK INTER + INTRA:         -10.862
REMARK INTER:                 -10.025
REMARK INTRA:                  -0.837
REMARK UNBOUND:                -0.843
REMARK  Name = cpd92.pdb
REMARK  5 active torsions:
REMARK  status: ('A' for Active; 'I' for Inactive)
REMARK    1  A    between atoms: C_2  and  C_3
REMARK    2  A    between atoms: C_2  and  C_26
REMARK    3  A    between atoms: C_6  and  C_7
REMARK    4  A    between atoms: C_7  and  N_8
REMARK    5  A    between atoms: N_8  and  C_9
REMARK                            x       y       z     vdW  Elec       q    Type
REMARK                         _______ _______ _______ _____ _____    ______ ____
ROOT
ATOM      1  C   UNL A   1      37.251 -37.004 -29.366  0.00  0.00    +0.043 A 
ATOM      2  C   UNL A   1      36.175 -36.131 -29.668  0.00  0.00    -0.005 A 
ATOM      3  C   UNL A   1      36.417 -35.115 -30.590  0.00  0.00    +0.047 A 
ATOM      4  N   UNL A   1      37.601 -34.966 -31.223  0.00  0.00    -0.251 NA
ATOM      5  C   UNL A   1      38.616 -35.786 -30.939  0.00  0.00    +0.074 A 
ATOM      6  C   UNL A   1      39.790 -35.546 -31.640  0.00  0.00    -0.036 A 
ATOM      7  C   UNL A   1      40.942 -36.296 -31.440  0.00  0.00    -0.058 A 
ATOM      8  C   UNL A   1      40.926 -37.305 -30.495  0.00  0.00    -0.043 A 
ATOM      9  C   UNL A   1      39.754 -37.568 -29.773  0.00  0.00    +0.052 A 
ATOM     10 CL   UNL A   1      39.929 -38.795 -28.558  0.00  0.00    -0.083 Cl
ATOM     11  C   UNL A   1      38.540 -36.831 -29.996  0.00  0.00    +0.040 A 
ATOM     12  C   UNL A   1      35.368 -34.102 -30.975  0.00  0.00    -0.010 C 
ATOM     13  C   UNL A   1      34.198 -34.717 -31.740  0.00  0.00    -0.048 C 
ATOM     14  C   UNL A   1      33.174 -35.400 -30.837  0.00  0.00    -0.052 C 
ATOM     15  C   UNL A   1      33.711 -36.604 -30.064  0.00  0.00    -0.049 C 
ATOM     16  C   UNL A   1      34.801 -36.254 -29.047  0.00  0.00    -0.024 C 
ENDROOT
BRANCH   1  17
ATOM     17  N   UNL A   1      37.032 -38.132 -28.529  0.00  0.00    -0.338 N 
ATOM     18  H   UNL A   1      37.135 -38.112 -27.550  0.00  0.00    +0.000 HD
BRANCH  17  19
ATOM     19  C   UNL A   1      36.634 -39.329 -29.281  0.00  0.00    +0.041 C 
BRANCH  19  23
ATOM     20  C   UNL A   1      34.451 -42.090 -27.482  0.00  0.00    +0.064 A 
ATOM     21  C   UNL A   1      33.824 -40.878 -27.253  0.00  0.00    -0.044 A 
ATOM     22  C   UNL A   1      34.510 -39.783 -27.858  0.00  0.00    -0.049 A 
ATOM     23  C   UNL A   1      35.645 -40.182 -28.534  0.00  0.00    +0.007 A 
ATOM     24  S   UNL A   1      35.858 -41.877 -28.441  0.00  0.00    -0.088 S 
BRANCH  20  26
ATOM     25  O   UNL A   1      34.388 -43.885 -25.926  0.00  0.00    -0.282 OA
ATOM     26  C   UNL A   1      34.091 -43.439 -27.040  0.00  0.00    +0.272 C 
BRANCH  26  27
ATOM     27  C   UNL A   1      33.323 -44.288 -28.052  0.00  0.00    +0.456 C 
ATOM     28  F   UNL A   1      32.149 -44.766 -27.548  0.00  0.00    -0.163 F 
ATOM     29  F   UNL A   1      34.017 -45.376 -28.488  0.00  0.00    -0.163 F 
ATOM     30  F   UNL A   1      32.987 -43.582 -29.172  0.00  0.00    -0.163 F 
ENDBRANCH  26  27
ENDBRANCH  20  26
ENDBRANCH  19  23
ENDBRANCH  17  19
ENDBRANCH   1  17
TORSDOF 5
ENDMDL
MODEL 10
REMARK VINA RESULT:    -7.617     19.639     21.990
REMARK INTER + INTRA:         -10.686
REMARK INTER:                  -9.643
REMARK INTRA:                  -1.043
REMARK UNBOUND:                -0.843
REMARK  Name = cpd92.pdb
REMARK  5 active torsions:
REMARK  status: ('A' for Active; 'I' for Inactive)
REMARK    1  A    between atoms: C_2  and  C_3
REMARK    2  A    between atoms: C_2  and  C_26
REMARK    3  A    between atoms: C_6  and  C_7
REMARK    4  A    between atoms: C_7  and  N_8
REMARK    5  A    between atoms: N_8  and  C_9
REMARK                            x       y       z     vdW  Elec       q    Type
REMARK                         _______ _______ _______ _____ _____    ______ ____
ROOT
ATOM      1  C   UNL A   1      42.546 -17.533 -39.512  0.00  0.00    +0.043 A 
ATOM      2  C   UNL A   1      42.221 -18.837 -39.057  0.00  0.00    -0.005 A 
ATOM      3  C   UNL A   1      40.874 -19.121 -38.844  0.00  0.00    +0.047 A 
ATOM      4  N   UNL A   1      39.889 -18.231 -39.093  0.00  0.00    -0.251 NA
ATOM      5  C   UNL A   1      40.193 -17.003 -39.519  0.00  0.00    +0.074 A 
ATOM      6  C   UNL A   1      39.109 -16.164 -39.739  0.00  0.00    -0.036 A 
ATOM      7  C   UNL A   1      39.260 -14.849 -40.160  0.00  0.00    -0.058 A 
ATOM      8  C   UNL A   1      40.536 -14.351 -40.346  0.00  0.00    -0.043 A 
ATOM      9  C   UNL A   1      41.648 -15.176 -40.130  0.00  0.00    +0.052 A 
ATOM     10 CL   UNL A   1      43.175 -14.371 -40.310  0.00  0.00    -0.083 Cl
ATOM     11  C   UNL A   1      41.510 -16.551 -39.736  0.00  0.00    +0.040 A 
ATOM     12  C   UNL A   1      40.399 -20.458 -38.334  0.00  0.00    -0.010 C 
ATOM     13  C   UNL A   1      40.631 -21.593 -39.328  0.00  0.00    -0.048 C 
ATOM     14  C   UNL A   1      42.062 -22.125 -39.319  0.00  0.00    -0.052 C 
ATOM     15  C   UNL A   1      43.120 -21.110 -39.748  0.00  0.00    -0.049 C 
ATOM     16  C   UNL A   1      43.253 -19.913 -38.803  0.00  0.00    -0.024 C 
ENDROOT
BRANCH   1  17
ATOM     17  N   UNL A   1      43.888 -17.222 -39.864  0.00  0.00    -0.338 N 
ATOM     18  H   UNL A   1      44.584 -16.988 -39.208  0.00  0.00    +0.000 HD
BRANCH  17  19
ATOM     19  C   UNL A   1      44.125 -17.288 -41.312  0.00  0.00    +0.041 C 
BRANCH  19  23
ATOM     20  C   UNL A   1      46.247 -20.557 -41.971  0.00  0.00    +0.064 A 
ATOM     21  C   UNL A   1      45.136 -20.634 -42.793  0.00  0.00    -0.044 A 
ATOM     22  C   UNL A   1      44.277 -19.503 -42.660  0.00  0.00    -0.049 A 
ATOM     23  C   UNL A   1      44.749 -18.589 -41.740  0.00  0.00    +0.007 A 
ATOM     24  S   UNL A   1      46.232 -19.102 -41.061  0.00  0.00    -0.088 S 
BRANCH  20  26
ATOM     25  O   UNL A   1      48.543 -21.161 -41.880  0.00  0.00    -0.282 OA
ATOM     26  C   UNL A   1      47.357 -21.495 -41.793  0.00  0.00    +0.272 C 
BRANCH  26  27
ATOM     27  C   UNL A   1      46.963 -22.942 -41.499  0.00  0.00    +0.456 C 
ATOM     28  F   UNL A   1      46.053 -23.041 -40.488  0.00  0.00    -0.163 F 
ATOM     29  F   UNL A   1      48.015 -23.729 -41.137  0.00  0.00    -0.163 F 
ATOM     30  F   UNL A   1      46.390 -23.553 -42.577  0.00  0.00    -0.163 F 
ENDBRANCH  26  27
ENDBRANCH  20  26
ENDBRANCH  19  23
ENDBRANCH  17  19
ENDBRANCH   1  17
TORSDOF 5
ENDMDL
MODEL 11
REMARK VINA RESULT:    -7.526      4.200      5.814
REMARK INTER + INTRA:         -10.569
REMARK INTER:                  -9.577
REMARK INTRA:                  -0.993
REMARK UNBOUND:                -0.843
REMARK  Name = cpd92.pdb
REMARK  5 active torsions:
REMARK  status: ('A' for Active; 'I' for Inactive)
REMARK    1  A    between atoms: C_2  and  C_3
REMARK    2  A    between atoms: C_2  and  C_26
REMARK    3  A    between atoms: C_6  and  C_7
REMARK    4  A    between atoms: C_7  and  N_8
REMARK    5  A    between atoms: N_8  and  C_9
REMARK                            x       y       z     vdW  Elec       q    Type
REMARK                         _______ _______ _______ _____ _____    ______ ____
ROOT
ATOM      1  C   UNL A   1      37.704 -37.075 -29.123  0.00  0.00    +0.043 A 
ATOM      2  C   UNL A   1      36.616 -36.254 -29.515  0.00  0.00    -0.005 A 
ATOM      3  C   UNL A   1      36.811 -35.416 -30.612  0.00  0.00    +0.047 A 
ATOM      4  N   UNL A   1      37.960 -35.394 -31.323  0.00  0.00    -0.251 NA
ATOM      5  C   UNL A   1      38.986 -36.165 -30.954  0.00  0.00    +0.074 A 
ATOM      6  C   UNL A   1      40.121 -36.064 -31.746  0.00  0.00    -0.036 A 
ATOM      7  C   UNL A   1      41.280 -36.782 -31.480  0.00  0.00    -0.058 A 
ATOM      8  C   UNL A   1      41.312 -37.611 -30.374  0.00  0.00    -0.043 A 
ATOM      9  C   UNL A   1      40.180 -37.730 -29.556  0.00  0.00    +0.052 A 
ATOM     10 CL   UNL A   1      40.417 -38.730 -28.158  0.00  0.00    -0.083 Cl
ATOM     11  C   UNL A   1      38.958 -37.029 -29.841  0.00  0.00    +0.040 A 
ATOM     12  C   UNL A   1      35.746 -34.473 -31.111  0.00  0.00    -0.010 C 
ATOM     13  C   UNL A   1      34.535 -35.197 -31.695  0.00  0.00    -0.048 C 
ATOM     14  C   UNL A   1      33.559 -35.701 -30.635  0.00  0.00    -0.052 C 
ATOM     15  C   UNL A   1      34.132 -36.758 -29.693  0.00  0.00    -0.049 C 
ATOM     16  C   UNL A   1      35.277 -36.250 -28.812  0.00  0.00    -0.024 C 
ENDROOT
BRANCH   1  17
ATOM     17  N   UNL A   1      37.527 -38.037 -28.092  0.00  0.00    -0.338 N 
ATOM     18  H   UNL A   1      37.434 -37.805 -27.140  0.00  0.00    +0.000 HD
BRANCH  17  19
ATOM     19  C   UNL A   1      37.497 -39.415 -28.600  0.00  0.00    +0.041 C 
BRANCH  19  23
ATOM     20  C   UNL A   1      33.731 -40.472 -29.166  0.00  0.00    +0.064 A 
ATOM     21  C   UNL A   1      34.322 -40.427 -30.417  0.00  0.00    -0.044 A 
ATOM     22  C   UNL A   1      35.699 -40.060 -30.359  0.00  0.00    -0.049 A 
ATOM     23  C   UNL A   1      36.129 -39.832 -29.068  0.00  0.00    +0.007 A 
ATOM     24  S   UNL A   1      34.866 -40.080 -27.941  0.00  0.00    -0.088 S 
BRANCH  20  26
ATOM     25  O   UNL A   1      32.062 -41.737 -28.043  0.00  0.00    -0.282 OA
ATOM     26  C   UNL A   1      32.354 -40.791 -28.782  0.00  0.00    +0.272 C 
BRANCH  26  27
ATOM     27  C   UNL A   1      31.274 -39.881 -29.365  0.00  0.00    +0.456 C 
ATOM     28  F   UNL A   1      30.061 -40.059 -28.767  0.00  0.00    -0.163 F 
ATOM     29  F   UNL A   1      31.066 -40.067 -30.699  0.00  0.00    -0.163 F 
ATOM     30  F   UNL A   1      31.573 -38.557 -29.213  0.00  0.00    -0.163 F 
ENDBRANCH  26  27
ENDBRANCH  20  26
ENDBRANCH  19  23
ENDBRANCH  17  19
ENDBRANCH   1  17
TORSDOF 5
ENDMDL
MODEL 12
REMARK VINA RESULT:    -7.298     16.776     18.673
REMARK INTER + INTRA:         -10.275
REMARK INTER:                  -9.187
REMARK INTRA:                  -1.088
REMARK UNBOUND:                -0.843
REMARK  Name = cpd92.pdb
REMARK  5 active torsions:
REMARK  status: ('A' for Active; 'I' for Inactive)
REMARK    1  A    between atoms: C_2  and  C_3
REMARK    2  A    between atoms: C_2  and  C_26
REMARK    3  A    between atoms: C_6  and  C_7
REMARK    4  A    between atoms: C_7  and  N_8
REMARK    5  A    between atoms: N_8  and  C_9
REMARK                            x       y       z     vdW  Elec       q    Type
REMARK                         _______ _______ _______ _____ _____    ______ ____
ROOT
ATOM      1  C   UNL A   1      43.863 -19.729 -39.139  0.00  0.00    +0.043 A 
ATOM      2  C   UNL A   1      44.627 -20.172 -40.249  0.00  0.00    -0.005 A 
ATOM      3  C   UNL A   1      45.919 -20.626 -39.994  0.00  0.00    +0.047 A 
ATOM      4  N   UNL A   1      46.439 -20.697 -38.750  0.00  0.00    -0.251 NA
ATOM      5  C   UNL A   1      45.723 -20.278 -37.704  0.00  0.00    +0.074 A 
ATOM      6  C   UNL A   1      46.350 -20.389 -36.470  0.00  0.00    -0.036 A 
ATOM      7  C   UNL A   1      45.746 -19.974 -35.290  0.00  0.00    -0.058 A 
ATOM      8  C   UNL A   1      44.485 -19.412 -35.347  0.00  0.00    -0.043 A 
ATOM      9  C   UNL A   1      43.829 -19.288 -36.579  0.00  0.00    +0.052 A 
ATOM     10 CL   UNL A   1      42.300 -18.473 -36.491  0.00  0.00    -0.083 Cl
ATOM     11  C   UNL A   1      44.420 -19.750 -37.805  0.00  0.00    +0.040 A 
ATOM     12  C   UNL A   1      46.844 -21.095 -41.089  0.00  0.00    -0.010 C 
ATOM     13  C   UNL A   1      46.368 -22.381 -41.761  0.00  0.00    -0.048 C 
ATOM     14  C   UNL A   1      45.282 -22.154 -42.808  0.00  0.00    -0.052 C 
ATOM     15  C   UNL A   1      43.975 -21.586 -42.257  0.00  0.00    -0.049 C 
ATOM     16  C   UNL A   1      44.108 -20.177 -41.670  0.00  0.00    -0.024 C 
ENDROOT
BRANCH   1  17
ATOM     17  N   UNL A   1      42.499 -19.371 -39.318  0.00  0.00    -0.338 N 
ATOM     18  H   UNL A   1      42.171 -18.443 -39.297  0.00  0.00    +0.000 HD
BRANCH  17  19
ATOM     19  C   UNL A   1      41.630 -20.535 -39.537  0.00  0.00    +0.041 C 
BRANCH  19  23
ATOM     20  C   UNL A   1      39.960 -21.893 -36.222  0.00  0.00    +0.064 A 
ATOM     21  C   UNL A   1      39.136 -20.887 -36.698  0.00  0.00    -0.044 A 
ATOM     22  C   UNL A   1      39.623 -20.306 -37.906  0.00  0.00    -0.049 A 
ATOM     23  C   UNL A   1      40.805 -20.880 -38.327  0.00  0.00    +0.007 A 
ATOM     24  S   UNL A   1      41.304 -22.123 -37.263  0.00  0.00    -0.088 S 
BRANCH  20  26
ATOM     25  O   UNL A   1      39.281 -23.832 -35.029  0.00  0.00    -0.282 OA
ATOM     26  C   UNL A   1      39.836 -22.728 -35.026  0.00  0.00    +0.272 C 
BRANCH  26  27
ATOM     27  C   UNL A   1      40.432 -22.147 -33.745  0.00  0.00    +0.456 C 
ATOM     28  F   UNL A   1      39.586 -21.275 -33.124  0.00  0.00    -0.163 F 
ATOM     29  F   UNL A   1      41.594 -21.465 -33.946  0.00  0.00    -0.163 F 
ATOM     30  F   UNL A   1      40.717 -23.111 -32.821  0.00  0.00    -0.163 F 
ENDBRANCH  26  27
ENDBRANCH  20  26
ENDBRANCH  19  23
ENDBRANCH  17  19
ENDBRANCH   1  17
TORSDOF 5
ENDMDL
MODEL 13
REMARK VINA RESULT:    -7.192     17.472     19.318
REMARK INTER + INTRA:         -10.137
REMARK INTER:                  -9.566
REMARK INTRA:                  -0.570
REMARK UNBOUND:                -0.843
REMARK  Name = cpd92.pdb
REMARK  5 active torsions:
REMARK  status: ('A' for Active; 'I' for Inactive)
REMARK    1  A    between atoms: C_2  and  C_3
REMARK    2  A    between atoms: C_2  and  C_26
REMARK    3  A    between atoms: C_6  and  C_7
REMARK    4  A    between atoms: C_7  and  N_8
REMARK    5  A    between atoms: N_8  and  C_9
REMARK                            x       y       z     vdW  Elec       q    Type
REMARK                         _______ _______ _______ _____ _____    ______ ____
ROOT
ATOM      1  C   UNL A   1      42.909 -20.418 -35.129  0.00  0.00    +0.043 A 
ATOM      2  C   UNL A   1      41.624 -20.814 -34.679  0.00  0.00    -0.005 A 
ATOM      3  C   UNL A   1      41.147 -20.226 -33.509  0.00  0.00    +0.047 A 
ATOM      4  N   UNL A   1      41.835 -19.281 -32.831  0.00  0.00    -0.251 NA
ATOM      5  C   UNL A   1      43.046 -18.908 -33.253  0.00  0.00    +0.074 A 
ATOM      6  C   UNL A   1      43.670 -17.935 -32.483  0.00  0.00    -0.036 A 
ATOM      7  C   UNL A   1      44.942 -17.459 -32.776  0.00  0.00    -0.058 A 
ATOM      8  C   UNL A   1      45.619 -17.987 -33.859  0.00  0.00    -0.043 A 
ATOM      9  C   UNL A   1      45.012 -18.971 -34.652  0.00  0.00    +0.052 A 
ATOM     10 CL   UNL A   1      46.031 -19.598 -35.908  0.00  0.00    -0.083 Cl
ATOM     11  C   UNL A   1      43.681 -19.445 -34.390  0.00  0.00    +0.040 A 
ATOM     12  C   UNL A   1      39.811 -20.582 -32.908  0.00  0.00    -0.010 C 
ATOM     13  C   UNL A   1      38.632 -20.151 -33.777  0.00  0.00    -0.048 C 
ATOM     14  C   UNL A   1      38.344 -21.110 -34.929  0.00  0.00    -0.052 C 
ATOM     15  C   UNL A   1      39.467 -21.225 -35.958  0.00  0.00    -0.049 C 
ATOM     16  C   UNL A   1      40.761 -21.826 -35.401  0.00  0.00    -0.024 C 
ENDROOT
BRANCH   1  17
ATOM     17  N   UNL A   1      43.395 -20.889 -36.378  0.00  0.00    -0.338 N 
ATOM     18  H   UNL A   1      44.027 -21.639 -36.470  0.00  0.00    +0.000 HD
BRANCH  17  19
ATOM     19  C   UNL A   1      42.856 -20.137 -37.519  0.00  0.00    +0.041 C 
BRANCH  19  23
ATOM     20  C   UNL A   1      45.059 -20.995 -40.687  0.00  0.00    +0.064 A 
ATOM     21  C   UNL A   1      43.771 -21.411 -40.976  0.00  0.00    -0.044 A 
ATOM     22  C   UNL A   1      42.860 -21.153 -39.909  0.00  0.00    -0.049 A 
ATOM     23  C   UNL A   1      43.471 -20.549 -38.830  0.00  0.00    +0.007 A 
ATOM     24  S   UNL A   1      45.135 -20.287 -39.126  0.00  0.00    -0.088 S 
BRANCH  20  26
ATOM     25  O   UNL A   1      46.923 -20.084 -41.845  0.00  0.00    -0.282 OA
ATOM     26  C   UNL A   1      46.281 -21.078 -41.489  0.00  0.00    +0.272 C 
BRANCH  26  27
ATOM     27  C   UNL A   1      46.723 -22.487 -41.883  0.00  0.00    +0.456 C 
ATOM     28  F   UNL A   1      46.008 -22.985 -42.932  0.00  0.00    -0.163 F 
ATOM     29  F   UNL A   1      46.600 -23.397 -40.877  0.00  0.00    -0.163 F 
ATOM     30  F   UNL A   1      48.032 -22.530 -42.271  0.00  0.00    -0.163 F 
ENDBRANCH  26  27
ENDBRANCH  20  26
ENDBRANCH  19  23
ENDBRANCH  17  19
ENDBRANCH   1  17
TORSDOF 5
ENDMDL
MODEL 14
REMARK VINA RESULT:    -7.123     16.472     18.350
REMARK INTER + INTRA:         -10.047
REMARK INTER:                  -9.248
REMARK INTRA:                  -0.800
REMARK UNBOUND:                -0.843
REMARK  Name = cpd92.pdb
REMARK  5 active torsions:
REMARK  status: ('A' for Active; 'I' for Inactive)
REMARK    1  A    between atoms: C_2  and  C_3
REMARK    2  A    between atoms: C_2  and  C_26
REMARK    3  A    between atoms: C_6  and  C_7
REMARK    4  A    between atoms: C_7  and  N_8
REMARK    5  A    between atoms: N_8  and  C_9
REMARK                            x       y       z     vdW  Elec       q    Type
REMARK                         _______ _______ _______ _____ _____    ______ ____
ROOT
ATOM      1  C   UNL A   1      43.960 -20.591 -38.109  0.00  0.00    +0.043 A 
ATOM      2  C   UNL A   1      44.971 -20.029 -37.289  0.00  0.00    -0.005 A 
ATOM      3  C   UNL A   1      46.033 -19.394 -37.930  0.00  0.00    +0.047 A 
ATOM      4  N   UNL A   1      46.105 -19.261 -39.272  0.00  0.00    -0.251 NA
ATOM      5  C   UNL A   1      45.155 -19.791 -40.046  0.00  0.00    +0.074 A 
ATOM      6  C   UNL A   1      45.326 -19.604 -41.411  0.00  0.00    -0.036 A 
ATOM      7  C   UNL A   1      44.436 -20.115 -42.348  0.00  0.00    -0.058 A 
ATOM      8  C   UNL A   1      43.355 -20.854 -41.908  0.00  0.00    -0.043 A 
ATOM      9  C   UNL A   1      43.160 -21.060 -40.535  0.00  0.00    +0.052 A 
ATOM     10 CL   UNL A   1      41.816 -22.090 -40.155  0.00  0.00    -0.083 Cl
ATOM     11  C   UNL A   1      44.045 -20.503 -39.549  0.00  0.00    +0.040 A 
ATOM     12  C   UNL A   1      47.187 -18.783 -37.175  0.00  0.00    -0.010 C 
ATOM     13  C   UNL A   1      46.778 -17.573 -36.339  0.00  0.00    -0.048 C 
ATOM     14  C   UNL A   1      46.134 -17.945 -35.006  0.00  0.00    -0.052 C 
ATOM     15  C   UNL A   1      44.814 -18.704 -35.127  0.00  0.00    -0.049 C 
ATOM     16  C   UNL A   1      44.947 -20.084 -35.777  0.00  0.00    -0.024 C 
ENDROOT
BRANCH   1  17
ATOM     17  N   UNL A   1      42.793 -21.142 -37.513  0.00  0.00    -0.338 N 
ATOM     18  H   UNL A   1      42.654 -22.107 -37.376  0.00  0.00    +0.000 HD
BRANCH  17  19
ATOM     19  C   UNL A   1      41.815 -20.117 -37.124  0.00  0.00    +0.041 C 
BRANCH  19  23
ATOM     20  C   UNL A   1      39.256 -21.521 -34.459  0.00  0.00    +0.064 A 
ATOM     21  C   UNL A   1      40.215 -20.814 -33.753  0.00  0.00    -0.044 A 
ATOM     22  C   UNL A   1      41.209 -20.242 -34.602  0.00  0.00    -0.049 A 
ATOM     23  C   UNL A   1      40.988 -20.525 -35.934  0.00  0.00    +0.007 A 
ATOM     24  S   UNL A   1      39.575 -21.465 -36.144  0.00  0.00    -0.088 S 
BRANCH  20  26
ATOM     25  O   UNL A   1      37.035 -21.707 -33.635  0.00  0.00    -0.282 OA
ATOM     26  C   UNL A   1      38.085 -22.259 -33.981  0.00  0.00    +0.272 C 
BRANCH  26  27
ATOM     27  C   UNL A   1      38.236 -23.778 -33.921  0.00  0.00    +0.456 C 
ATOM     28  F   UNL A   1      37.203 -24.380 -33.265  0.00  0.00    -0.163 F 
ATOM     29  F   UNL A   1      39.372 -24.188 -33.290  0.00  0.00    -0.163 F 
ATOM     30  F   UNL A   1      38.270 -24.346 -35.162  0.00  0.00    -0.163 F 
ENDBRANCH  26  27
ENDBRANCH  20  26
ENDBRANCH  19  23
ENDBRANCH  17  19
ENDBRANCH   1  17
TORSDOF 5
ENDMDL
MODEL 15
REMARK VINA RESULT:    -6.989     16.665     18.399
REMARK INTER + INTRA:          -9.875
REMARK INTER:                  -8.850
REMARK INTRA:                  -1.026
REMARK UNBOUND:                -0.843
REMARK  Name = cpd92.pdb
REMARK  5 active torsions:
REMARK  status: ('A' for Active; 'I' for Inactive)
REMARK    1  A    between atoms: C_2  and  C_3
REMARK    2  A    between atoms: C_2  and  C_26
REMARK    3  A    between atoms: C_6  and  C_7
REMARK    4  A    between atoms: C_7  and  N_8
REMARK    5  A    between atoms: N_8  and  C_9
REMARK                            x       y       z     vdW  Elec       q    Type
REMARK                         _______ _______ _______ _____ _____    ______ ____
ROOT
ATOM      1  C   UNL A   1      44.364 -19.891 -37.131  0.00  0.00    +0.043 A 
ATOM      2  C   UNL A   1      44.805 -19.523 -35.834  0.00  0.00    -0.005 A 
ATOM      3  C   UNL A   1      45.776 -18.527 -35.749  0.00  0.00    +0.047 A 
ATOM      4  N   UNL A   1      46.267 -17.887 -36.832  0.00  0.00    -0.251 NA
ATOM      5  C   UNL A   1      45.854 -18.233 -38.054  0.00  0.00    +0.074 A 
ATOM      6  C   UNL A   1      46.423 -17.518 -39.099  0.00  0.00    -0.036 A 
ATOM      7  C   UNL A   1      46.116 -17.775 -40.429  0.00  0.00    -0.058 A 
ATOM      8  C   UNL A   1      45.230 -18.793 -40.725  0.00  0.00    -0.043 A 
ATOM      9  C   UNL A   1      44.642 -19.532 -39.689  0.00  0.00    +0.052 A 
ATOM     10 CL   UNL A   1      43.632 -20.835 -40.230  0.00  0.00    -0.083 Cl
ATOM     11  C   UNL A   1      44.914 -19.252 -38.305  0.00  0.00    +0.040 A 
ATOM     12  C   UNL A   1      46.350 -18.066 -34.433  0.00  0.00    -0.010 C 
ATOM     13  C   UNL A   1      45.329 -17.348 -33.555  0.00  0.00    -0.048 C 
ATOM     14  C   UNL A   1      44.408 -18.298 -32.793  0.00  0.00    -0.052 C 
ATOM     15  C   UNL A   1      43.510 -19.160 -33.679  0.00  0.00    -0.049 C 
ATOM     16  C   UNL A   1      44.274 -20.149 -34.564  0.00  0.00    -0.024 C 
ENDROOT
BRANCH   1  17
ATOM     17  N   UNL A   1      43.290 -20.810 -37.277  0.00  0.00    -0.338 N 
ATOM     18  H   UNL A   1      43.414 -21.781 -37.389  0.00  0.00    +0.000 HD
BRANCH  17  19
ATOM     19  C   UNL A   1      41.975 -20.157 -37.245  0.00  0.00    +0.041 C 
BRANCH  19  23
ATOM     20  C   UNL A   1      40.010 -22.059 -34.391  0.00  0.00    +0.064 A 
ATOM     21  C   UNL A   1      39.580 -20.743 -34.359  0.00  0.00    -0.044 A 
ATOM     22  C   UNL A   1      40.212 -19.937 -35.351  0.00  0.00    -0.049 A 
ATOM     23  C   UNL A   1      41.108 -20.652 -36.118  0.00  0.00    +0.007 A 
ATOM     24  S   UNL A   1      41.165 -22.293 -35.638  0.00  0.00    -0.088 S 
BRANCH  20  26
ATOM     25  O   UNL A   1      40.287 -23.564 -32.573  0.00  0.00    -0.282 OA
ATOM     26  C   UNL A   1      39.629 -23.198 -33.553  0.00  0.00    +0.272 C 
BRANCH  26  27
ATOM     27  C   UNL A   1      38.355 -23.932 -33.968  0.00  0.00    +0.456 C 
ATOM     28  F   UNL A   1      38.248 -25.162 -33.388  0.00  0.00    -0.163 F 
ATOM     29  F   UNL A   1      38.259 -24.139 -35.311  0.00  0.00    -0.163 F 
ATOM     30  F   UNL A   1      37.225 -23.253 -33.610  0.00  0.00    -0.163 F 
ENDBRANCH  26  27
ENDBRANCH  20  26
ENDBRANCH  19  23
ENDBRANCH  17  19
ENDBRANCH   1  17
TORSDOF 5
ENDMDL
MODEL 16
REMARK VINA RESULT:    -6.961      4.188      6.022
REMARK INTER + INTRA:          -9.838
REMARK INTER:                  -9.056
REMARK INTRA:                  -0.782
REMARK UNBOUND:                -0.843
REMARK  Name = cpd92.pdb
REMARK  5 active torsions:
REMARK  status: ('A' for Active; 'I' for Inactive)
REMARK    1  A    between atoms: C_2  and  C_3
REMARK    2  A    between atoms: C_2  and  C_26
REMARK    3  A    between atoms: C_6  and  C_7
REMARK    4  A    between atoms: C_7  and  N_8
REMARK    5  A    between atoms: N_8  and  C_9
REMARK                            x       y       z     vdW  Elec       q    Type
REMARK                         _______ _______ _______ _____ _____    ______ ____
ROOT
ATOM      1  C   UNL A   1      36.186 -36.059 -29.210  0.00  0.00    +0.043 A 
ATOM      2  C   UNL A   1      35.282 -35.007 -29.508  0.00  0.00    -0.005 A 
ATOM      3  C   UNL A   1      35.613 -34.160 -30.565  0.00  0.00    +0.047 A 
ATOM      4  N   UNL A   1      36.716 -34.333 -31.324  0.00  0.00    -0.251 NA
ATOM      5  C   UNL A   1      37.569 -35.322 -31.044  0.00  0.00    +0.074 A 
ATOM      6  C   UNL A   1      38.674 -35.409 -31.881  0.00  0.00    -0.036 A 
ATOM      7  C   UNL A   1      39.664 -36.367 -31.706  0.00  0.00    -0.058 A 
ATOM      8  C   UNL A   1      39.557 -37.253 -30.650  0.00  0.00    -0.043 A 
ATOM      9  C   UNL A   1      38.453 -37.186 -29.790  0.00  0.00    +0.052 A 
ATOM     10 CL   UNL A   1      38.520 -38.299 -28.461  0.00  0.00    -0.083 Cl
ATOM     11  C   UNL A   1      37.397 -36.229 -29.980  0.00  0.00    +0.040 A 
ATOM     12  C   UNL A   1      34.753 -32.987 -30.963  0.00  0.00    -0.010 C 
ATOM     13  C   UNL A   1      33.399 -33.406 -31.530  0.00  0.00    -0.048 C 
ATOM     14  C   UNL A   1      32.374 -33.762 -30.456  0.00  0.00    -0.052 C 
ATOM     15  C   UNL A   1      32.743 -34.972 -29.601  0.00  0.00    -0.049 C 
ATOM     16  C   UNL A   1      33.997 -34.769 -28.745  0.00  0.00    -0.024 C 
ENDROOT
BRANCH   1  17
ATOM     17  N   UNL A   1      35.844 -37.026 -28.227  0.00  0.00    -0.338 N 
ATOM     18  H   UNL A   1      36.261 -37.068 -27.335  0.00  0.00    +0.000 HD
BRANCH  17  19
ATOM     19  C   UNL A   1      34.803 -37.957 -28.682  0.00  0.00    +0.041 C 
BRANCH  19  23
ATOM     20  C   UNL A   1      32.637 -38.557 -25.431  0.00  0.00    +0.064 A 
ATOM     21  C   UNL A   1      31.839 -38.904 -26.508  0.00  0.00    -0.044 A 
ATOM     22  C   UNL A   1      32.506 -38.739 -27.758  0.00  0.00    -0.049 A 
ATOM     23  C   UNL A   1      33.795 -38.270 -27.609  0.00  0.00    +0.007 A 
ATOM     24  S   UNL A   1      34.189 -38.050 -25.960  0.00  0.00    -0.088 S 
BRANCH  20  26
ATOM     25  O   UNL A   1      32.061 -39.598 -23.374  0.00  0.00    -0.282 OA
ATOM     26  C   UNL A   1      32.344 -38.569 -23.996  0.00  0.00    +0.272 C 
BRANCH  26  27
ATOM     27  C   UNL A   1      32.396 -37.211 -23.296  0.00  0.00    +0.456 C 
ATOM     28  F   UNL A   1      33.622 -36.948 -22.758  0.00  0.00    -0.163 F 
ATOM     29  F   UNL A   1      31.503 -37.092 -22.274  0.00  0.00    -0.163 F 
ATOM     30  F   UNL A   1      32.133 -36.178 -24.148  0.00  0.00    -0.163 F 
ENDBRANCH  26  27
ENDBRANCH  20  26
ENDBRANCH  19  23
ENDBRANCH  17  19
ENDBRANCH   1  17
TORSDOF 5
ENDMDL
MODEL 17
REMARK VINA RESULT:    -6.942     16.421     18.155
REMARK INTER + INTRA:          -9.815
REMARK INTER:                  -9.141
REMARK INTRA:                  -0.674
REMARK UNBOUND:                -0.843
REMARK  Name = cpd92.pdb
REMARK  5 active torsions:
REMARK  status: ('A' for Active; 'I' for Inactive)
REMARK    1  A    between atoms: C_2  and  C_3
REMARK    2  A    between atoms: C_2  and  C_26
REMARK    3  A    between atoms: C_6  and  C_7
REMARK    4  A    between atoms: C_7  and  N_8
REMARK    5  A    between atoms: N_8  and  C_9
REMARK                            x       y       z     vdW  Elec       q    Type
REMARK                         _______ _______ _______ _____ _____    ______ ____
ROOT
ATOM      1  C   UNL A   1      43.850 -20.534 -38.591  0.00  0.00    +0.043 A 
ATOM      2  C   UNL A   1      44.422 -20.268 -37.321  0.00  0.00    -0.005 A 
ATOM      3  C   UNL A   1      45.803 -20.406 -37.202  0.00  0.00    +0.047 A 
ATOM      4  N   UNL A   1      46.600 -20.734 -38.242  0.00  0.00    -0.251 NA
ATOM      5  C   UNL A   1      46.063 -20.988 -39.438  0.00  0.00    +0.074 A 
ATOM      6  C   UNL A   1      46.967 -21.322 -40.437  0.00  0.00    -0.036 A 
ATOM      7  C   UNL A   1      46.564 -21.637 -41.729  0.00  0.00    -0.058 A 
ATOM      8  C   UNL A   1      45.214 -21.638 -42.025  0.00  0.00    -0.043 A 
ATOM      9  C   UNL A   1      44.280 -21.306 -41.034  0.00  0.00    +0.052 A 
ATOM     10 CL   UNL A   1      42.626 -21.453 -41.539  0.00  0.00    -0.083 Cl
ATOM     11  C   UNL A   1      44.680 -20.936 -39.704  0.00  0.00    +0.040 A 
ATOM     12  C   UNL A   1      46.530 -20.181 -35.900  0.00  0.00    -0.010 C 
ATOM     13  C   UNL A   1      46.490 -18.726 -35.437  0.00  0.00    -0.048 C 
ATOM     14  C   UNL A   1      45.183 -18.345 -34.746  0.00  0.00    -0.052 C 
ATOM     15  C   UNL A   1      43.945 -18.426 -35.637  0.00  0.00    -0.049 C 
ATOM     16  C   UNL A   1      43.614 -19.843 -36.115  0.00  0.00    -0.024 C 
ENDROOT
BRANCH   1  17
ATOM     17  N   UNL A   1      42.466 -20.292 -38.807  0.00  0.00    -0.338 N 
ATOM     18  H   UNL A   1      42.098 -19.411 -39.050  0.00  0.00    +0.000 HD
BRANCH  17  19
ATOM     19  C   UNL A   1      41.643 -21.496 -38.629  0.00  0.00    +0.041 C 
BRANCH  19  23
ATOM     20  C   UNL A   1      39.805 -21.916 -35.155  0.00  0.00    +0.064 A 
ATOM     21  C   UNL A   1      39.264 -20.793 -35.756  0.00  0.00    -0.044 A 
ATOM     22  C   UNL A   1      39.839 -20.525 -37.034  0.00  0.00    -0.049 A 
ATOM     23  C   UNL A   1      40.805 -21.446 -37.380  0.00  0.00    +0.007 A 
ATOM     24  S   UNL A   1      40.995 -22.633 -36.163  0.00  0.00    -0.088 S 
BRANCH  20  26
ATOM     25  O   UNL A   1      38.743 -23.487 -33.723  0.00  0.00    -0.282 OA
ATOM     26  C   UNL A   1      39.510 -22.528 -33.858  0.00  0.00    +0.272 C 
BRANCH  26  27
ATOM     27  C   UNL A   1      40.207 -21.898 -32.652  0.00  0.00    +0.456 C 
ATOM     28  F   UNL A   1      39.336 -21.254 -31.824  0.00  0.00    -0.163 F 
ATOM     29  F   UNL A   1      41.155 -20.979 -32.990  0.00  0.00    -0.163 F 
ATOM     30  F   UNL A   1      40.841 -22.826 -31.877  0.00  0.00    -0.163 F 
ENDBRANCH  26  27
ENDBRANCH  20  26
ENDBRANCH  19  23
ENDBRANCH  17  19
ENDBRANCH   1  17
TORSDOF 5
ENDMDL
MODEL 18
REMARK VINA RESULT:    -6.915     18.519     20.298
REMARK INTER + INTRA:          -9.779
REMARK INTER:                  -9.197
REMARK INTRA:                  -0.582
REMARK UNBOUND:                -0.843
REMARK  Name = cpd92.pdb
REMARK  5 active torsions:
REMARK  status: ('A' for Active; 'I' for Inactive)
REMARK    1  A    between atoms: C_2  and  C_3
REMARK    2  A    between atoms: C_2  and  C_26
REMARK    3  A    between atoms: C_6  and  C_7
REMARK    4  A    between atoms: C_7  and  N_8
REMARK    5  A    between atoms: N_8  and  C_9
REMARK                            x       y       z     vdW  Elec       q    Type
REMARK                         _______ _______ _______ _____ _____    ______ ____
ROOT
ATOM      1  C   UNL A   1      43.619 -19.415 -37.574  0.00  0.00    +0.043 A 
ATOM      2  C   UNL A   1      42.648 -19.993 -36.716  0.00  0.00    -0.005 A 
ATOM      3  C   UNL A   1      43.034 -20.263 -35.405  0.00  0.00    +0.047 A 
ATOM      4  N   UNL A   1      44.260 -19.958 -34.924  0.00  0.00    -0.251 NA
ATOM      5  C   UNL A   1      45.175 -19.416 -35.731  0.00  0.00    +0.074 A 
ATOM      6  C   UNL A   1      46.403 -19.147 -35.141  0.00  0.00    -0.036 A 
ATOM      7  C   UNL A   1      47.467 -18.606 -35.852  0.00  0.00    -0.058 A 
ATOM      8  C   UNL A   1      47.304 -18.346 -37.200  0.00  0.00    -0.043 A 
ATOM      9  C   UNL A   1      46.076 -18.609 -37.820  0.00  0.00    +0.052 A 
ATOM     10 CL   UNL A   1      46.069 -18.321 -39.532  0.00  0.00    -0.083 Cl
ATOM     11  C   UNL A   1      44.951 -19.128 -37.092  0.00  0.00    +0.040 A 
ATOM     12  C   UNL A   1      42.108 -20.903 -34.403  0.00  0.00    -0.010 C 
ATOM     13  C   UNL A   1      40.928 -20.010 -34.025  0.00  0.00    -0.048 C 
ATOM     14  C   UNL A   1      39.797 -20.032 -35.050  0.00  0.00    -0.052 C 
ATOM     15  C   UNL A   1      40.175 -19.488 -36.427  0.00  0.00    -0.049 C 
ATOM     16  C   UNL A   1      41.237 -20.319 -37.153  0.00  0.00    -0.024 C 
ENDROOT
BRANCH   1  17
ATOM     17  N   UNL A   1      43.249 -19.004 -38.883  0.00  0.00    -0.338 N 
ATOM     18  H   UNL A   1      43.289 -18.070 -39.194  0.00  0.00    +0.000 HD
BRANCH  17  19
ATOM     19  C   UNL A   1      42.801 -20.122 -39.725  0.00  0.00    +0.041 C 
BRANCH  19  23
ATOM     20  C   UNL A   1      45.751 -21.865 -41.694  0.00  0.00    +0.064 A 
ATOM     21  C   UNL A   1      45.251 -20.877 -42.524  0.00  0.00    -0.044 A 
ATOM     22  C   UNL A   1      44.172 -20.157 -41.929  0.00  0.00    -0.049 A 
ATOM     23  C   UNL A   1      43.873 -20.610 -40.661  0.00  0.00    +0.007 A 
ATOM     24  S   UNL A   1      44.909 -21.890 -40.199  0.00  0.00    -0.088 S 
BRANCH  20  26
ATOM     25  O   UNL A   1      46.720 -23.816 -42.645  0.00  0.00    -0.282 OA
ATOM     26  C   UNL A   1      46.835 -22.826 -41.915  0.00  0.00    +0.272 C 
BRANCH  26  27
ATOM     27  C   UNL A   1      48.138 -22.540 -41.171  0.00  0.00    +0.456 C 
ATOM     28  F   UNL A   1      48.562 -21.254 -41.334  0.00  0.00    -0.163 F 
ATOM     29  F   UNL A   1      49.175 -23.331 -41.567  0.00  0.00    -0.163 F 
ATOM     30  F   UNL A   1      48.018 -22.724 -39.824  0.00  0.00    -0.163 F 
ENDBRANCH  26  27
ENDBRANCH  20  26
ENDBRANCH  19  23
ENDBRANCH  17  19
ENDBRANCH   1  17
TORSDOF 5
ENDMDL
MODEL 19
REMARK VINA RESULT:    -6.794     18.166     20.158
REMARK INTER + INTRA:          -9.623
REMARK INTER:                  -8.701
REMARK INTRA:                  -0.921
REMARK UNBOUND:                -0.843
REMARK  Name = cpd92.pdb
REMARK  5 active torsions:
REMARK  status: ('A' for Active; 'I' for Inactive)
REMARK    1  A    between atoms: C_2  and  C_3
REMARK    2  A    between atoms: C_2  and  C_26
REMARK    3  A    between atoms: C_6  and  C_7
REMARK    4  A    between atoms: C_7  and  N_8
REMARK    5  A    between atoms: N_8  and  C_9
REMARK                            x       y       z     vdW  Elec       q    Type
REMARK                         _______ _______ _______ _____ _____    ______ ____
ROOT
ATOM      1  C   UNL A   1      43.373 -20.023 -36.254  0.00  0.00    +0.043 A 
ATOM      2  C   UNL A   1      42.296 -20.849 -36.667  0.00  0.00    -0.005 A 
ATOM      3  C   UNL A   1      41.139 -20.823 -35.892  0.00  0.00    +0.047 A 
ATOM      4  N   UNL A   1      40.997 -20.024 -34.812  0.00  0.00    -0.251 NA
ATOM      5  C   UNL A   1      42.010 -19.248 -34.421  0.00  0.00    +0.074 A 
ATOM      6  C   UNL A   1      41.764 -18.469 -33.298  0.00  0.00    -0.036 A 
ATOM      7  C   UNL A   1      42.726 -17.627 -32.752  0.00  0.00    -0.058 A 
ATOM      8  C   UNL A   1      43.978 -17.578 -33.335  0.00  0.00    -0.043 A 
ATOM      9  C   UNL A   1      44.253 -18.355 -34.469  0.00  0.00    +0.052 A 
ATOM     10 CL   UNL A   1      45.897 -18.255 -35.016  0.00  0.00    -0.083 Cl
ATOM     11  C   UNL A   1      43.259 -19.198 -35.073  0.00  0.00    +0.040 A 
ATOM     12  C   UNL A   1      39.934 -21.675 -36.205  0.00  0.00    -0.010 C 
ATOM     13  C   UNL A   1      39.245 -21.278 -37.508  0.00  0.00    -0.048 C 
ATOM     14  C   UNL A   1      39.933 -21.834 -38.753  0.00  0.00    -0.052 C 
ATOM     15  C   UNL A   1      41.353 -21.318 -38.979  0.00  0.00    -0.049 C 
ATOM     16  C   UNL A   1      42.347 -21.736 -37.891  0.00  0.00    -0.024 C 
ENDROOT
BRANCH   1  17
ATOM     17  N   UNL A   1      44.532 -19.913 -37.070  0.00  0.00    -0.338 N 
ATOM     18  H   UNL A   1      45.365 -20.411 -36.904  0.00  0.00    +0.000 HD
BRANCH  17  19
ATOM     19  C   UNL A   1      44.353 -18.977 -38.188  0.00  0.00    +0.041 C 
BRANCH  19  23
ATOM     20  C   UNL A   1      46.529 -20.462 -41.134  0.00  0.00    +0.064 A 
ATOM     21  C   UNL A   1      45.348 -20.016 -41.700  0.00  0.00    -0.044 A 
ATOM     22  C   UNL A   1      44.462 -19.444 -40.740  0.00  0.00    -0.049 A 
ATOM     23  C   UNL A   1      44.984 -19.468 -39.463  0.00  0.00    +0.007 A 
ATOM     24  S   UNL A   1      46.545 -20.166 -39.444  0.00  0.00    -0.088 S 
BRANCH  20  26
ATOM     25  O   UNL A   1      48.521 -20.499 -42.429  0.00  0.00    -0.282 OA
ATOM     26  C   UNL A   1      47.688 -21.111 -41.752  0.00  0.00    +0.272 C 
BRANCH  26  27
ATOM     27  C   UNL A   1      47.808 -22.616 -41.522  0.00  0.00    +0.456 C 
ATOM     28  F   UNL A   1      46.633 -23.179 -41.119  0.00  0.00    -0.163 F 
ATOM     29  F   UNL A   1      48.730 -22.950 -40.576  0.00  0.00    -0.163 F 
ATOM     30  F   UNL A   1      48.172 -23.286 -42.655  0.00  0.00    -0.163 F 
ENDBRANCH  26  27
ENDBRANCH  20  26
ENDBRANCH  19  23
ENDBRANCH  17  19
ENDBRANCH   1  17
TORSDOF 5
ENDMDL
MODEL 20
REMARK VINA RESULT:    -6.617      5.455      7.852
REMARK INTER + INTRA:          -9.394
REMARK INTER:                  -8.645
REMARK INTRA:                  -0.749
REMARK UNBOUND:                -0.843
REMARK  Name = cpd92.pdb
REMARK  5 active torsions:
REMARK  status: ('A' for Active; 'I' for Inactive)
REMARK    1  A    between atoms: C_2  and  C_3
REMARK    2  A    between atoms: C_2  and  C_26
REMARK    3  A    between atoms: C_6  and  C_7
REMARK    4  A    between atoms: C_7  and  N_8
REMARK    5  A    between atoms: N_8  and  C_9
REMARK                            x       y       z     vdW  Elec       q    Type
REMARK                         _______ _______ _______ _____ _____    ______ ____
ROOT
ATOM      1  C   UNL A   1      33.804 -35.857 -28.830  0.00  0.00    +0.043 A 
ATOM      2  C   UNL A   1      34.982 -36.576 -29.157  0.00  0.00    -0.005 A 
ATOM      3  C   UNL A   1      35.878 -35.969 -30.034  0.00  0.00    +0.047 A 
ATOM      4  N   UNL A   1      35.687 -34.729 -30.535  0.00  0.00    -0.251 NA
ATOM      5  C   UNL A   1      34.577 -34.052 -30.230  0.00  0.00    +0.074 A 
ATOM      6  C   UNL A   1      34.474 -32.790 -30.802  0.00  0.00    -0.036 A 
ATOM      7  C   UNL A   1      33.370 -31.972 -30.601  0.00  0.00    -0.058 A 
ATOM      8  C   UNL A   1      32.327 -32.437 -29.823  0.00  0.00    -0.043 A 
ATOM      9  C   UNL A   1      32.405 -33.707 -29.235  0.00  0.00    +0.052 A 
ATOM     10 CL   UNL A   1      30.974 -34.180 -28.374  0.00  0.00    -0.083 Cl
ATOM     11  C   UNL A   1      33.557 -34.551 -29.396  0.00  0.00    +0.040 A 
ATOM     12  C   UNL A   1      37.152 -36.638 -30.484  0.00  0.00    -0.010 C 
ATOM     13  C   UNL A   1      38.160 -36.825 -29.353  0.00  0.00    -0.048 C 
ATOM     14  C   UNL A   1      37.865 -38.034 -28.469  0.00  0.00    -0.052 C 
ATOM     15  C   UNL A   1      36.545 -37.955 -27.703  0.00  0.00    -0.049 C 
ATOM     16  C   UNL A   1      35.305 -37.946 -28.602  0.00  0.00    -0.024 C 
ENDROOT
BRANCH   1  17
ATOM     17  N   UNL A   1      32.914 -36.370 -27.848  0.00  0.00    -0.338 N 
ATOM     18  H   UNL A   1      32.184 -37.000 -28.049  0.00  0.00    +0.000 HD
BRANCH  17  19
ATOM     19  C   UNL A   1      33.198 -35.859 -26.500  0.00  0.00    +0.041 C 
BRANCH  19  23
ATOM     20  C   UNL A   1      32.734 -38.253 -23.390  0.00  0.00    +0.064 A 
ATOM     21  C   UNL A   1      33.481 -38.954 -24.321  0.00  0.00    -0.044 A 
ATOM     22  C   UNL A   1      33.731 -38.197 -25.504  0.00  0.00    -0.049 A 
ATOM     23  C   UNL A   1      33.169 -36.938 -25.451  0.00  0.00    +0.007 A 
ATOM     24  S   UNL A   1      32.361 -36.681 -23.966  0.00  0.00    -0.088 S 
BRANCH  20  26
ATOM     25  O   UNL A   1      31.143 -39.159 -21.875  0.00  0.00    -0.282 OA
ATOM     26  C   UNL A   1      32.256 -38.656 -22.066  0.00  0.00    +0.272 C 
BRANCH  26  27
ATOM     27  C   UNL A   1      33.220 -38.408 -20.906  0.00  0.00    +0.456 C 
ATOM     28  F   UNL A   1      33.859 -39.544 -20.506  0.00  0.00    -0.163 F 
ATOM     29  F   UNL A   1      32.615 -37.904 -19.794  0.00  0.00    -0.163 F 
ATOM     30  F   UNL A   1      34.206 -37.522 -21.233  0.00  0.00    -0.163 F 
ENDBRANCH  26  27
ENDBRANCH  20  26
ENDBRANCH  19  23
ENDBRANCH  17  19
ENDBRANCH   1  17
TORSDOF 5
ENDMDL
