REMARK  Name = cpd92.pdb
REMARK  5 active torsions:
REMARK  status: ('A' for Active; 'I' for Inactive)
REMARK    1  A    between atoms: C_2  and  C_3
REMARK    2  A    between atoms: C_2  and  C_26
REMARK    3  A    between atoms: C_6  and  C_7
REMARK    4  A    between atoms: C_7  and  N_8
REMARK    5  A    between atoms: N_8  and  C_9
REMARK                            x       y       z     vdW  Elec       q    Type
REMARK                         _______ _______ _______ _____ _____    ______ ____
ROOT
ATOM      1  C   UNL A   1      -3.634   0.678   0.654  0.00  0.00    +0.043 A 
ATOM      2  C   UNL A   1      -4.755  -0.190   0.695  0.00  0.00    -0.005 A 
ATOM      3  C   UNL A   1      -6.008   0.374   0.463  0.00  0.00    +0.047 A 
ATOM      4  N   UNL A   1      -6.180   1.680   0.164  0.00  0.00    -0.251 NA
ATOM      5  C   UNL A   1      -5.126   2.499   0.127  0.00  0.00    +0.074 A 
ATOM      6  C   UNL A   1      -5.411   3.822  -0.184  0.00  0.00    -0.036 A 
ATOM      7  C   UNL A   1      -4.427   4.801  -0.238  0.00  0.00    -0.058 A 
ATOM      8  C   UNL A   1      -3.121   4.451   0.048  0.00  0.00    -0.043 A 
ATOM      9  C   UNL A   1      -2.806   3.123   0.366  0.00  0.00    +0.052 A 
ATOM     10 CL   UNL A   1      -1.144   2.871   0.796  0.00  0.00    -0.083 Cl
ATOM     11  C   UNL A   1      -3.803   2.088   0.385  0.00  0.00    +0.040 A 
ATOM     12  C   UNL A   1      -7.281  -0.433   0.508  0.00  0.00    -0.010 C 
ATOM     13  C   UNL A   1      -7.375  -1.462  -0.616  0.00  0.00    -0.048 C 
ATOM     14  C   UNL A   1      -6.584  -2.738  -0.339  0.00  0.00    -0.052 C 
ATOM     15  C   UNL A   1      -5.074  -2.538  -0.222  0.00  0.00    -0.049 C 
ATOM     16  C   UNL A   1      -4.652  -1.674   0.970  0.00  0.00    -0.024 C 
ENDROOT
BRANCH   1  17
ATOM     17  N   UNL A   1      -2.322   0.142   0.760  0.00  0.00    -0.338 N 
ATOM     18  H   UNL A   1      -1.833   0.061   1.611  0.00  0.00    +0.000 HD
BRANCH  17  19
ATOM     19  C   UNL A   1      -1.773  -0.278  -0.536  0.00  0.00    +0.041 C 
BRANCH  19  23
ATOM     20  C   UNL A   1       2.024  -1.359  -0.343  0.00  0.00    +0.064 A 
ATOM     21  C   UNL A   1       1.276  -2.486  -0.049  0.00  0.00    -0.044 A 
ATOM     22  C   UNL A   1      -0.128  -2.237  -0.089  0.00  0.00    -0.049 A 
ATOM     23  C   UNL A   1      -0.421  -0.928  -0.411  0.00  0.00    +0.007 A 
ATOM     24  S   UNL A   1       1.004  -0.020  -0.676  0.00  0.00    -0.088 S 
BRANCH  20  26
ATOM     25  O   UNL A   1       4.010  -0.108  -0.713  0.00  0.00    -0.282 OA
ATOM     26  C   UNL A   1       3.476  -1.178  -0.402  0.00  0.00    +0.272 C 
BRANCH  26  27
ATOM     27  C   UNL A   1       4.314  -2.410  -0.063  0.00  0.00    +0.456 C 
ATOM     28  F   UNL A   1       4.049  -2.895   1.184  0.00  0.00    -0.163 F 
ATOM     29  F   UNL A   1       5.657  -2.182  -0.101  0.00  0.00    -0.163 F 
ATOM     30  F   UNL A   1       4.084  -3.446  -0.922  0.00  0.00    -0.163 F 
ENDBRANCH  26  27
ENDBRANCH  20  26
ENDBRANCH  19  23
ENDBRANCH  17  19
ENDBRANCH   1  17
TORSDOF 5
