@<TRIPOS>MOLECULE
*****
 29 32 0 0 0
SMALL
GASTEIGER

@<TRIPOS>ATOM
      1 O           2.0704    0.2749    0.0000 O.2     1  UNL1       -0.2819
      2 C           1.6637   -0.6386    0.0000 C.2     1  UNL1        0.2725
      3 C           0.6691   -0.7431    0.0000 C.ar    1  UNL1        0.0723
      4 C           0.1691   -1.6092    0.0000 C.ar    1  UNL1        0.0099
      5 C          -0.8090   -1.4013    0.0000 C.ar    1  UNL1        0.0045
      6 C          -0.9135   -0.4067    0.0000 C.ar    1  UNL1        0.0290
      7 C          -1.7796    0.0933    0.0000 C.3     1  UNL1        0.1449
      8 N          -2.6456   -0.4067    0.0000 N.pl3   1  UNL1       -0.2325
      9 C          -3.5116    0.0933    0.0000 C.ar    1  UNL1        0.0651
     10 C          -4.3776   -0.4067    0.0000 C.ar    1  UNL1        0.0063
     11 C          -5.2437    0.0933    0.0000 C.ar    1  UNL1        0.0562
     12 N          -5.2437    1.0933    0.0000 N.ar    1  UNL1       -0.2499
     13 C          -4.3776    1.5933    0.0000 C.ar    1  UNL1        0.0829
     14 C          -4.3776    2.5933    0.0000 C.ar    1  UNL1        0.0192
     15 C          -3.5116    3.0933    0.0000 C.ar    1  UNL1        0.0024
     16 C          -2.6456    2.5933    0.0000 C.ar    1  UNL1        0.0115
     17 C          -2.6456    1.5933    0.0000 C.ar    1  UNL1        0.0603
     18 CL         -1.7796    1.0933    0.0000 Cl      1  UNL1       -0.0822
     19 C          -3.5116    1.0933    0.0000 C.ar    1  UNL1        0.0428
     20 C          -6.1745   -0.2721    0.0000 C.3     1  UNL1        0.0455
     21 C          -6.4693   -1.2277    0.0000 C.3     1  UNL1        0.0063
     22 C          -5.9060   -2.0539    0.0000 C.3     1  UNL1        0.0007
     23 C          -4.9088   -2.1286    0.0000 C.3     1  UNL1        0.0048
     24 C          -4.2286   -1.3956    0.0000 C.3     1  UNL1        0.0289
     25 S           0.0000   -0.0000    0.0000 S.2     1  UNL1       -0.0864
     26 C           2.2514   -1.4476    0.0000 C.3     1  UNL1        0.4560
     27 F           3.1650   -1.8544    0.0000 F       1  UNL1       -0.1630
     28 F           3.0605   -0.8598    0.0000 F       1  UNL1       -0.1630
     29 F           1.8447   -2.3612    0.0000 F       1  UNL1       -0.1630
@<TRIPOS>BOND
     1     1     2    2
     2     2     3    1
     3     3     4   ar
     4     4     5   ar
     5     5     6   ar
     6     6     7    1
     7     7     8    1
     8     8     9    1
     9     9    10   ar
    10    10    11   ar
    11    11    12   ar
    12    12    13   ar
    13    13    14   ar
    14    14    15   ar
    15    15    16   ar
    16    16    17   ar
    17    17    18    1
    18    17    19   ar
    19     9    19   ar
    20    13    19   ar
    21    11    20    1
    22    20    21    1
    23    21    22    1
    24    22    23    1
    25    23    24    1
    26    10    24    1
    27     6    25   ar
    28     3    25   ar
    29     2    26    1
    30    26    27    1
    31    26    28    1
    32    26    29    1
