MODEL 1
REMARK VINA RESULT:    -8.247      0.000      0.000
REMARK INTER + INTRA:         -15.931
REMARK INTER:                 -14.755
REMARK INTRA:                  -1.176
REMARK UNBOUND:                -1.176
REMARK  Name = cpd295.pdb
REMARK  18 active torsions:
REMARK  status: ('A' for Active; 'I' for Inactive)
REMARK    1  A    between atoms: C_1  and  C_2
REMARK    2  A    between atoms: C_2  and  C_3
REMARK    3  A    between atoms: C_2  and  C_20
REMARK    4  A    between atoms: C_3  and  C_4
REMARK    5  A    between atoms: C_4  and  C_5
REMARK    6  A    between atoms: C_6  and  C_7
REMARK    7  A    between atoms: C_7  and  O_8
REMARK    8  A    between atoms: C_12  and  C_13
REMARK    9  A    between atoms: C_12  and  C_14
REMARK   10  A    between atoms: C_18  and  C_19
REMARK   11  A    between atoms: C_20  and  C_21
REMARK   12  A    between atoms: C_21  and  O_23
REMARK   13  A    between atoms: O_23  and  C_24
REMARK   14  A    between atoms: C_24  and  C_25
REMARK   15  A    between atoms: C_25  and  C_26
REMARK   16  A    between atoms: C_26  and  C_27
REMARK   17  A    between atoms: C_27  and  C_28
REMARK   18  A    between atoms: C_28  and  N_29
REMARK                            x       y       z     vdW  Elec       q    Type
REMARK                         _______ _______ _______ _____ _____    ______ ____
ROOT
ATOM      1  C   UNL     1      41.185 -37.877 -30.639  0.00  0.00    -0.049 C 
ENDROOT
BRANCH   1   3
ATOM      2  C   UNL     1      42.347 -39.008 -28.666  0.00  0.00    -0.062 C 
ATOM      3  C   UNL     1      42.196 -38.953 -30.187  0.00  0.00    -0.034 C 
BRANCH   3   4
ATOM      4  C   UNL     1      43.582 -38.722 -30.832  0.00  0.00    +0.048 C 
BRANCH   4   5
ATOM      5  C   UNL     1      44.185 -37.385 -30.461  0.00  0.00    +0.307 C 
ATOM      6  O   UNL     1      43.686 -36.300 -30.721  0.00  0.00    -0.251 OA
BRANCH   5   7
ATOM      7  O   UNL     1      45.291 -37.582 -29.691  0.00  0.00    -0.465 OA
BRANCH   7   8
ATOM      8  C   UNL     1      46.264 -36.526 -29.721  0.00  0.00    +0.092 C 
BRANCH   8   9
ATOM      9  C   UNL     1      47.550 -37.083 -29.120  0.00  0.00    -0.018 C 
BRANCH   9  10
ATOM     10  C   UNL     1      48.582 -37.467 -30.182  0.00  0.00    -0.049 C 
BRANCH  10  11
ATOM     11  C   UNL     1      48.905 -38.966 -30.126  0.00  0.00    -0.040 C 
BRANCH  11  12
ATOM     12  C   UNL     1      47.944 -39.718 -29.194  0.00  0.00    -0.001 C 
BRANCH  12  13
ATOM     13  N   UNL     1      46.812 -40.296 -29.922  0.00  0.00    -0.302 N 
ATOM     14  C   UNL     1      47.238 -41.223 -30.980  0.00  0.00    -0.001 C 
ATOM     15  C   UNL     1      46.033 -42.128 -31.212  0.00  0.00    -0.039 C 
ATOM     16  C   UNL     1      45.107 -41.877 -30.031  0.00  0.00    -0.039 C 
ATOM     17  C   UNL     1      45.955 -41.097 -29.044  0.00  0.00    -0.001 C 
ATOM     18  H   UNL     1      46.319 -39.492 -30.310  0.00  0.00    +0.000 HD
ENDBRANCH  12  13
ENDBRANCH  11  12
ENDBRANCH  10  11
ENDBRANCH   9  10
ENDBRANCH   8   9
ENDBRANCH   7   8
ENDBRANCH   5   7
ENDBRANCH   4   5
ENDBRANCH   3   4
ENDBRANCH   1   3
BRANCH   1  19
ATOM     19  C   UNL     1      40.495 -37.061 -29.528  0.00  0.00    -0.046 C 
BRANCH  19  20
ATOM     20  C   UNL     1      38.904 -36.847 -29.649  0.00  0.00    -0.012 C 
ATOM     21  C   UNL     1      38.614 -36.034 -30.942  0.00  0.00    -0.045 C 
ATOM     22  C   UNL     1      37.318 -35.788 -31.149  0.00  0.00    -0.082 C 
ATOM     23  C   UNL     1      36.380 -36.504 -30.253  0.00  0.00    -0.031 C 
ATOM     24  C   UNL     1      36.991 -37.946 -29.890  0.00  0.00    -0.027 C 
ATOM     25  C   UNL     1      35.692 -39.014 -29.985  0.00  0.00    -0.031 C 
ATOM     26  C   UNL     1      36.152 -40.501 -29.881  0.00  0.00    -0.060 C 
ATOM     27  C   UNL     1      34.926 -38.940 -31.337  0.00  0.00    -0.060 C 
ATOM     28  C   UNL     1      34.713 -38.692 -28.848  0.00  0.00    -0.048 C 
ATOM     29  C   UNL     1      35.485 -38.538 -27.559  0.00  0.00    -0.052 C 
ATOM     30  C   UNL     1      36.778 -37.748 -27.792  0.00  0.00    -0.047 C 
ATOM     31  C   UNL     1      37.706 -38.272 -29.272  0.00  0.00    -0.022 C 
ATOM     32  C   UNL     1      38.421 -38.598 -28.654  0.00  0.00    -0.059 C 
BRANCH  21  33
ATOM     33  C   UNL     1      39.705 -35.489 -31.829  0.00  0.00    +0.066 C 
BRANCH  33  34
ATOM     34  O   UNL     1      39.569 -35.939 -33.171  0.00  0.00    -0.391 OA
ATOM     35  H   UNL     1      40.094 -36.744 -33.297  0.00  0.00    +0.000 HD
ENDBRANCH  33  34
ENDBRANCH  21  33
ENDBRANCH  19  20
ENDBRANCH   1  19
TORSDOF 14
ENDMDL
MODEL 2
REMARK VINA RESULT:    -8.008      5.012     11.138
REMARK INTER + INTRA:         -15.505
REMARK INTER:                 -13.220
REMARK INTRA:                  -2.285
REMARK UNBOUND:                -1.176
REMARK  Name = cpd295.pdb
REMARK  18 active torsions:
REMARK  status: ('A' for Active; 'I' for Inactive)
REMARK    1  A    between atoms: C_1  and  C_2
REMARK    2  A    between atoms: C_2  and  C_3
REMARK    3  A    between atoms: C_2  and  C_20
REMARK    4  A    between atoms: C_3  and  C_4
REMARK    5  A    between atoms: C_4  and  C_5
REMARK    6  A    between atoms: C_6  and  C_7
REMARK    7  A    between atoms: C_7  and  O_8
REMARK    8  A    between atoms: C_12  and  C_13
REMARK    9  A    between atoms: C_12  and  C_14
REMARK   10  A    between atoms: C_18  and  C_19
REMARK   11  A    between atoms: C_20  and  C_21
REMARK   12  A    between atoms: C_21  and  O_23
REMARK   13  A    between atoms: O_23  and  C_24
REMARK   14  A    between atoms: C_24  and  C_25
REMARK   15  A    between atoms: C_25  and  C_26
REMARK   16  A    between atoms: C_26  and  C_27
REMARK   17  A    between atoms: C_27  and  C_28
REMARK   18  A    between atoms: C_28  and  N_29
REMARK                            x       y       z     vdW  Elec       q    Type
REMARK                         _______ _______ _______ _____ _____    ______ ____
ROOT
ATOM      1  C   UNL     1      35.406 -36.084 -29.793  0.00  0.00    -0.049 C 
ENDROOT
BRANCH   1   3
ATOM      2  C   UNL     1      34.258 -35.472 -31.990  0.00  0.00    -0.062 C 
ATOM      3  C   UNL     1      34.722 -34.974 -30.620  0.00  0.00    -0.034 C 
BRANCH   3   4
ATOM      4  C   UNL     1      35.658 -33.758 -30.806  0.00  0.00    +0.048 C 
BRANCH   4   5
ATOM      5  C   UNL     1      34.903 -32.475 -31.084  0.00  0.00    +0.307 C 
ATOM      6  O   UNL     1      35.007 -31.814 -32.107  0.00  0.00    -0.251 OA
BRANCH   5   7
ATOM      7  O   UNL     1      34.009 -32.247 -30.082  0.00  0.00    -0.465 OA
BRANCH   7   8
ATOM      8  C   UNL     1      32.778 -31.624 -30.479  0.00  0.00    +0.092 C 
BRANCH   8   9
ATOM      9  C   UNL     1      31.849 -32.732 -30.963  0.00  0.00    -0.018 C 
BRANCH   9  10
ATOM     10  C   UNL     1      31.443 -33.695 -29.846  0.00  0.00    -0.049 C 
BRANCH  10  11
ATOM     11  C   UNL     1      30.556 -34.825 -30.383  0.00  0.00    -0.040 C 
BRANCH  11  12
ATOM     12  C   UNL     1      31.097 -36.207 -29.988  0.00  0.00    -0.001 C 
BRANCH  12  13
ATOM     13  N   UNL     1      30.255 -37.293 -30.496  0.00  0.00    -0.302 N 
ATOM     14  C   UNL     1      28.825 -37.054 -30.259  0.00  0.00    -0.001 C 
ATOM     15  C   UNL     1      28.111 -37.905 -31.302  0.00  0.00    -0.039 C 
ATOM     16  C   UNL     1      29.190 -38.318 -32.293  0.00  0.00    -0.039 C 
ATOM     17  C   UNL     1      30.377 -37.439 -31.949  0.00  0.00    -0.001 C 
ATOM     18  H   UNL     1      30.579 -38.122 -29.998  0.00  0.00    +0.000 HD
ENDBRANCH  12  13
ENDBRANCH  11  12
ENDBRANCH  10  11
ENDBRANCH   9  10
ENDBRANCH   8   9
ENDBRANCH   7   8
ENDBRANCH   5   7
ENDBRANCH   4   5
ENDBRANCH   3   4
ENDBRANCH   1   3
BRANCH   1  19
ATOM     19  C   UNL     1      36.384 -37.008 -30.544  0.00  0.00    -0.046 C 
BRANCH  19  20
ATOM     20  C   UNL     1      37.956 -36.802 -30.265  0.00  0.00    -0.012 C 
ATOM     21  C   UNL     1      38.448 -37.957 -29.347  0.00  0.00    -0.045 C 
ATOM     22  C   UNL     1      39.746 -37.890 -29.042  0.00  0.00    -0.082 C 
ATOM     23  C   UNL     1      40.529 -36.878 -29.789  0.00  0.00    -0.031 C 
ATOM     24  C   UNL     1      39.931 -36.737 -31.275  0.00  0.00    -0.027 C 
ATOM     25  C   UNL     1      41.276 -36.648 -32.286  0.00  0.00    -0.031 C 
ATOM     26  C   UNL     1      40.877 -36.734 -33.792  0.00  0.00    -0.060 C 
ATOM     27  C   UNL     1      42.282 -37.815 -32.084  0.00  0.00    -0.060 C 
ATOM     28  C   UNL     1      42.000 -35.322 -32.015  0.00  0.00    -0.048 C 
ATOM     29  C   UNL     1      40.988 -34.201 -31.985  0.00  0.00    -0.052 C 
ATOM     30  C   UNL     1      39.727 -34.629 -31.226  0.00  0.00    -0.047 C 
ATOM     31  C   UNL     1      39.127 -36.293 -31.671  0.00  0.00    -0.022 C 
ATOM     32  C   UNL     1      38.323 -35.850 -32.068  0.00  0.00    -0.059 C 
BRANCH  21  33
ATOM     33  C   UNL     1      37.523 -39.001 -28.777  0.00  0.00    +0.066 C 
BRANCH  33  34
ATOM     34  O   UNL     1      38.228 -39.966 -28.005  0.00  0.00    -0.391 OA
ATOM     35  H   UNL     1      37.947 -39.906 -27.079  0.00  0.00    +0.000 HD
ENDBRANCH  33  34
ENDBRANCH  21  33
ENDBRANCH  19  20
ENDBRANCH   1  19
TORSDOF 14
ENDMDL
MODEL 3
REMARK VINA RESULT:    -7.977      6.798     12.715
REMARK INTER + INTRA:         -15.449
REMARK INTER:                 -13.759
REMARK INTRA:                  -1.690
REMARK UNBOUND:                -1.176
REMARK  Name = cpd295.pdb
REMARK  18 active torsions:
REMARK  status: ('A' for Active; 'I' for Inactive)
REMARK    1  A    between atoms: C_1  and  C_2
REMARK    2  A    between atoms: C_2  and  C_3
REMARK    3  A    between atoms: C_2  and  C_20
REMARK    4  A    between atoms: C_3  and  C_4
REMARK    5  A    between atoms: C_4  and  C_5
REMARK    6  A    between atoms: C_6  and  C_7
REMARK    7  A    between atoms: C_7  and  O_8
REMARK    8  A    between atoms: C_12  and  C_13
REMARK    9  A    between atoms: C_12  and  C_14
REMARK   10  A    between atoms: C_18  and  C_19
REMARK   11  A    between atoms: C_20  and  C_21
REMARK   12  A    between atoms: C_21  and  O_23
REMARK   13  A    between atoms: O_23  and  C_24
REMARK   14  A    between atoms: C_24  and  C_25
REMARK   15  A    between atoms: C_25  and  C_26
REMARK   16  A    between atoms: C_26  and  C_27
REMARK   17  A    between atoms: C_27  and  C_28
REMARK   18  A    between atoms: C_28  and  N_29
REMARK                            x       y       z     vdW  Elec       q    Type
REMARK                         _______ _______ _______ _____ _____    ______ ____
ROOT
ATOM      1  C   UNL     1      35.226 -36.368 -30.007  0.00  0.00    -0.049 C 
ENDROOT
BRANCH   1   3
ATOM      2  C   UNL     1      34.180 -35.445 -32.145  0.00  0.00    -0.062 C 
ATOM      3  C   UNL     1      34.637 -35.132 -30.720  0.00  0.00    -0.034 C 
BRANCH   3   4
ATOM      4  C   UNL     1      35.653 -33.967 -30.751  0.00  0.00    +0.048 C 
BRANCH   4   5
ATOM      5  C   UNL     1      34.992 -32.619 -30.939  0.00  0.00    +0.307 C 
ATOM      6  O   UNL     1      35.124 -31.910 -31.927  0.00  0.00    -0.251 OA
BRANCH   5   7
ATOM      7  O   UNL     1      34.139 -32.381 -29.905  0.00  0.00    -0.465 OA
BRANCH   7   8
ATOM      8  C   UNL     1      32.889 -31.770 -30.258  0.00  0.00    +0.092 C 
BRANCH   8   9
ATOM      9  C   UNL     1      31.832 -32.327 -29.311  0.00  0.00    -0.018 C 
BRANCH   9  10
ATOM     10  C   UNL     1      30.405 -32.060 -29.792  0.00  0.00    -0.049 C 
BRANCH  10  11
ATOM     11  C   UNL     1      29.665 -31.116 -28.836  0.00  0.00    -0.040 C 
BRANCH  11  12
ATOM     12  C   UNL     1      28.170 -31.022 -29.176  0.00  0.00    -0.001 C 
BRANCH  12  13
ATOM     13  N   UNL     1      27.774 -29.661 -29.545  0.00  0.00    -0.302 N 
ATOM     14  C   UNL     1      28.539 -28.637 -28.821  0.00  0.00    -0.001 C 
ATOM     15  C   UNL     1      28.444 -27.391 -29.694  0.00  0.00    -0.039 C 
ATOM     16  C   UNL     1      27.911 -27.878 -31.034  0.00  0.00    -0.039 C 
ATOM     17  C   UNL     1      28.029 -29.389 -30.963  0.00  0.00    -0.001 C 
ATOM     18  H   UNL     1      26.781 -29.613 -29.317  0.00  0.00    +0.000 HD
ENDBRANCH  12  13
ENDBRANCH  11  12
ENDBRANCH  10  11
ENDBRANCH   9  10
ENDBRANCH   8   9
ENDBRANCH   7   8
ENDBRANCH   5   7
ENDBRANCH   4   5
ENDBRANCH   3   4
ENDBRANCH   1   3
BRANCH   1  19
ATOM     19  C   UNL     1      36.296 -37.169 -30.775  0.00  0.00    -0.046 C 
BRANCH  19  20
ATOM     20  C   UNL     1      37.837 -36.892 -30.399  0.00  0.00    -0.012 C 
ATOM     21  C   UNL     1      38.313 -38.004 -29.422  0.00  0.00    -0.045 C 
ATOM     22  C   UNL     1      39.584 -37.877 -29.034  0.00  0.00    -0.082 C 
ATOM     23  C   UNL     1      40.374 -36.850 -29.754  0.00  0.00    -0.031 C 
ATOM     24  C   UNL     1      39.870 -36.768 -31.279  0.00  0.00    -0.027 C 
ATOM     25  C   UNL     1      41.274 -36.647 -32.203  0.00  0.00    -0.031 C 
ATOM     26  C   UNL     1      40.980 -36.784 -33.728  0.00  0.00    -0.060 C 
ATOM     27  C   UNL     1      42.311 -37.767 -31.906  0.00  0.00    -0.060 C 
ATOM     28  C   UNL     1      41.926 -35.286 -31.919  0.00  0.00    -0.048 C 
ATOM     29  C   UNL     1      40.871 -34.208 -31.983  0.00  0.00    -0.052 C 
ATOM     30  C   UNL     1      39.580 -34.670 -31.298  0.00  0.00    -0.047 C 
ATOM     31  C   UNL     1      39.078 -36.368 -31.739  0.00  0.00    -0.022 C 
ATOM     32  C   UNL     1      38.285 -35.967 -32.198  0.00  0.00    -0.059 C 
BRANCH  21  33
ATOM     33  C   UNL     1      37.393 -39.073 -28.887  0.00  0.00    +0.066 C 
BRANCH  33  34
ATOM     34  O   UNL     1      38.087 -40.000 -28.061  0.00  0.00    -0.391 OA
ATOM     35  H   UNL     1      37.752 -39.936 -27.153  0.00  0.00    +0.000 HD
ENDBRANCH  33  34
ENDBRANCH  21  33
ENDBRANCH  19  20
ENDBRANCH   1  19
TORSDOF 14
ENDMDL
MODEL 4
REMARK VINA RESULT:    -7.787      4.503      9.932
REMARK INTER + INTRA:         -15.109
REMARK INTER:                 -12.708
REMARK INTRA:                  -2.401
REMARK UNBOUND:                -1.176
REMARK  Name = cpd295.pdb
REMARK  18 active torsions:
REMARK  status: ('A' for Active; 'I' for Inactive)
REMARK    1  A    between atoms: C_1  and  C_2
REMARK    2  A    between atoms: C_2  and  C_3
REMARK    3  A    between atoms: C_2  and  C_20
REMARK    4  A    between atoms: C_3  and  C_4
REMARK    5  A    between atoms: C_4  and  C_5
REMARK    6  A    between atoms: C_6  and  C_7
REMARK    7  A    between atoms: C_7  and  O_8
REMARK    8  A    between atoms: C_12  and  C_13
REMARK    9  A    between atoms: C_12  and  C_14
REMARK   10  A    between atoms: C_18  and  C_19
REMARK   11  A    between atoms: C_20  and  C_21
REMARK   12  A    between atoms: C_21  and  O_23
REMARK   13  A    between atoms: O_23  and  C_24
REMARK   14  A    between atoms: C_24  and  C_25
REMARK   15  A    between atoms: C_25  and  C_26
REMARK   16  A    between atoms: C_26  and  C_27
REMARK   17  A    between atoms: C_27  and  C_28
REMARK   18  A    between atoms: C_28  and  N_29
REMARK                            x       y       z     vdW  Elec       q    Type
REMARK                         _______ _______ _______ _____ _____    ______ ____
ROOT
ATOM      1  C   UNL     1      35.561 -36.022 -29.941  0.00  0.00    -0.049 C 
ENDROOT
BRANCH   1   3
ATOM      2  C   UNL     1      36.160 -33.723 -30.875  0.00  0.00    -0.062 C 
ATOM      3  C   UNL     1      35.115 -34.838 -30.826  0.00  0.00    -0.034 C 
BRANCH   3   4
ATOM      4  C   UNL     1      33.766 -34.256 -30.344  0.00  0.00    +0.048 C 
BRANCH   4   5
ATOM      5  C   UNL     1      32.576 -35.052 -30.836  0.00  0.00    +0.307 C 
ATOM      6  O   UNL     1      32.498 -35.578 -31.937  0.00  0.00    -0.251 OA
BRANCH   5   7
ATOM      7  O   UNL     1      31.674 -35.195 -29.826  0.00  0.00    -0.465 OA
BRANCH   7   8
ATOM      8  C   UNL     1      32.098 -34.709 -28.543  0.00  0.00    +0.092 C 
BRANCH   8   9
ATOM      9  C   UNL     1      31.230 -35.395 -27.493  0.00  0.00    -0.018 C 
BRANCH   9  10
ATOM     10  C   UNL     1      31.610 -36.861 -27.277  0.00  0.00    -0.049 C 
BRANCH  10  11
ATOM     11  C   UNL     1      33.132 -37.052 -27.321  0.00  0.00    -0.040 C 
BRANCH  11  12
ATOM     12  C   UNL     1      33.535 -38.480 -26.925  0.00  0.00    -0.001 C 
BRANCH  12  13
ATOM     13  N   UNL     1      34.257 -39.165 -28.000  0.00  0.00    -0.302 N 
ATOM     14  C   UNL     1      34.357 -40.613 -27.776  0.00  0.00    -0.001 C 
ATOM     15  C   UNL     1      34.577 -41.207 -29.163  0.00  0.00    -0.039 C 
ATOM     16  C   UNL     1      34.250 -40.085 -30.138  0.00  0.00    -0.039 C 
ATOM     17  C   UNL     1      33.568 -39.030 -29.286  0.00  0.00    -0.001 C 
ATOM     18  H   UNL     1      35.178 -38.727 -28.009  0.00  0.00    +0.000 HD
ENDBRANCH  12  13
ENDBRANCH  11  12
ENDBRANCH  10  11
ENDBRANCH   9  10
ENDBRANCH   8   9
ENDBRANCH   7   8
ENDBRANCH   5   7
ENDBRANCH   4   5
ENDBRANCH   3   4
ENDBRANCH   1   3
BRANCH   1  19
ATOM     19  C   UNL     1      36.536 -37.034 -30.574  0.00  0.00    -0.046 C 
BRANCH  19  20
ATOM     20  C   UNL     1      38.103 -36.847 -30.255  0.00  0.00    -0.012 C 
ATOM     21  C   UNL     1      38.548 -37.985 -29.293  0.00  0.00    -0.045 C 
ATOM     22  C   UNL     1      39.838 -37.932 -28.952  0.00  0.00    -0.082 C 
ATOM     23  C   UNL     1      40.660 -36.954 -29.702  0.00  0.00    -0.031 C 
ATOM     24  C   UNL     1      40.107 -36.844 -31.209  0.00  0.00    -0.027 C 
ATOM     25  C   UNL     1      41.481 -36.805 -32.182  0.00  0.00    -0.031 C 
ATOM     26  C   UNL     1      41.124 -36.926 -33.696  0.00  0.00    -0.060 C 
ATOM     27  C   UNL     1      42.461 -37.984 -31.920  0.00  0.00    -0.060 C 
ATOM     28  C   UNL     1      42.221 -35.485 -31.926  0.00  0.00    -0.048 C 
ATOM     29  C   UNL     1      41.229 -34.346 -31.956  0.00  0.00    -0.052 C 
ATOM     30  C   UNL     1      39.939 -34.732 -31.222  0.00  0.00    -0.047 C 
ATOM     31  C   UNL     1      39.323 -36.398 -31.640  0.00  0.00    -0.022 C 
ATOM     32  C   UNL     1      38.538 -35.952 -32.071  0.00  0.00    -0.059 C 
BRANCH  21  33
ATOM     33  C   UNL     1      37.588 -38.998 -28.721  0.00  0.00    +0.066 C 
BRANCH  33  34
ATOM     34  O   UNL     1      38.271 -40.080 -28.100  0.00  0.00    -0.391 OA
ATOM     35  H   UNL     1      38.632 -39.789 -27.249  0.00  0.00    +0.000 HD
ENDBRANCH  33  34
ENDBRANCH  21  33
ENDBRANCH  19  20
ENDBRANCH   1  19
TORSDOF 14
ENDMDL
MODEL 5
REMARK VINA RESULT:    -7.741      5.743     11.874
REMARK INTER + INTRA:         -15.026
REMARK INTER:                 -13.180
REMARK INTRA:                  -1.846
REMARK UNBOUND:                -1.176
REMARK  Name = cpd295.pdb
REMARK  18 active torsions:
REMARK  status: ('A' for Active; 'I' for Inactive)
REMARK    1  A    between atoms: C_1  and  C_2
REMARK    2  A    between atoms: C_2  and  C_3
REMARK    3  A    between atoms: C_2  and  C_20
REMARK    4  A    between atoms: C_3  and  C_4
REMARK    5  A    between atoms: C_4  and  C_5
REMARK    6  A    between atoms: C_6  and  C_7
REMARK    7  A    between atoms: C_7  and  O_8
REMARK    8  A    between atoms: C_12  and  C_13
REMARK    9  A    between atoms: C_12  and  C_14
REMARK   10  A    between atoms: C_18  and  C_19
REMARK   11  A    between atoms: C_20  and  C_21
REMARK   12  A    between atoms: C_21  and  O_23
REMARK   13  A    between atoms: O_23  and  C_24
REMARK   14  A    between atoms: C_24  and  C_25
REMARK   15  A    between atoms: C_25  and  C_26
REMARK   16  A    between atoms: C_26  and  C_27
REMARK   17  A    between atoms: C_27  and  C_28
REMARK   18  A    between atoms: C_28  and  N_29
REMARK                            x       y       z     vdW  Elec       q    Type
REMARK                         _______ _______ _______ _____ _____    ______ ____
ROOT
ATOM      1  C   UNL     1      35.620 -35.731 -29.899  0.00  0.00    -0.049 C 
ENDROOT
BRANCH   1   3
ATOM      2  C   UNL     1      33.829 -36.838 -28.455  0.00  0.00    -0.062 C 
ATOM      3  C   UNL     1      34.124 -36.083 -29.752  0.00  0.00    -0.034 C 
BRANCH   3   4
ATOM      4  C   UNL     1      33.624 -36.915 -30.955  0.00  0.00    +0.048 C 
BRANCH   4   5
ATOM      5  C   UNL     1      33.279 -36.058 -32.155  0.00  0.00    +0.307 C 
ATOM      6  O   UNL     1      34.054 -35.782 -33.059  0.00  0.00    -0.251 OA
BRANCH   5   7
ATOM      7  O   UNL     1      31.952 -35.755 -32.131  0.00  0.00    -0.465 OA
BRANCH   7   8
ATOM      8  C   UNL     1      31.614 -34.413 -32.513  0.00  0.00    +0.092 C 
BRANCH   8   9
ATOM      9  C   UNL     1      32.035 -33.500 -31.368  0.00  0.00    -0.018 C 
BRANCH   9  10
ATOM     10  C   UNL     1      31.336 -33.840 -30.051  0.00  0.00    -0.049 C 
BRANCH  10  11
ATOM     11  C   UNL     1      31.380 -32.655 -29.077  0.00  0.00    -0.040 C 
BRANCH  11  12
ATOM     12  C   UNL     1      32.053 -31.428 -29.709  0.00  0.00    -0.001 C 
BRANCH  12  13
ATOM     13  N   UNL     1      31.161 -30.266 -29.741  0.00  0.00    -0.302 N 
ATOM     14  C   UNL     1      30.259 -30.283 -30.901  0.00  0.00    -0.001 C 
ATOM     15  C   UNL     1      29.082 -29.405 -30.491  0.00  0.00    -0.039 C 
ATOM     16  C   UNL     1      29.226 -29.216 -28.988  0.00  0.00    -0.039 C 
ATOM     17  C   UNL     1      30.273 -30.233 -28.575  0.00  0.00    -0.001 C 
ATOM     18  H   UNL     1      31.788 -29.463 -29.770  0.00  0.00    +0.000 HD
ENDBRANCH  12  13
ENDBRANCH  11  12
ENDBRANCH  10  11
ENDBRANCH   9  10
ENDBRANCH   8   9
ENDBRANCH   7   8
ENDBRANCH   5   7
ENDBRANCH   4   5
ENDBRANCH   3   4
ENDBRANCH   1   3
BRANCH   1  19
ATOM     19  C   UNL     1      36.530 -36.809 -30.520  0.00  0.00    -0.046 C 
BRANCH  19  20
ATOM     20  C   UNL     1      38.113 -36.682 -30.253  0.00  0.00    -0.012 C 
ATOM     21  C   UNL     1      38.556 -37.873 -29.357  0.00  0.00    -0.045 C 
ATOM     22  C   UNL     1      39.859 -37.873 -29.062  0.00  0.00    -0.082 C 
ATOM     23  C   UNL     1      40.683 -36.888 -29.801  0.00  0.00    -0.031 C 
ATOM     24  C   UNL     1      40.080 -36.697 -31.280  0.00  0.00    -0.027 C 
ATOM     25  C   UNL     1      41.418 -36.657 -32.302  0.00  0.00    -0.031 C 
ATOM     26  C   UNL     1      41.004 -36.702 -33.805  0.00  0.00    -0.060 C 
ATOM     27  C   UNL     1      42.369 -37.875 -32.126  0.00  0.00    -0.060 C 
ATOM     28  C   UNL     1      42.208 -35.372 -32.018  0.00  0.00    -0.048 C 
ATOM     29  C   UNL     1      41.252 -34.204 -31.962  0.00  0.00    -0.052 C 
ATOM     30  C   UNL     1      39.978 -34.583 -31.198  0.00  0.00    -0.047 C 
ATOM     31  C   UNL     1      39.295 -36.209 -31.662  0.00  0.00    -0.022 C 
ATOM     32  C   UNL     1      38.510 -35.722 -32.045  0.00  0.00    -0.059 C 
BRANCH  21  33
ATOM     33  C   UNL     1      37.586 -38.880 -28.793  0.00  0.00    +0.066 C 
BRANCH  33  34
ATOM     34  O   UNL     1      37.045 -38.453 -27.549  0.00  0.00    -0.391 OA
ATOM     35  H   UNL     1      36.320 -39.044 -27.292  0.00  0.00    +0.000 HD
ENDBRANCH  33  34
ENDBRANCH  21  33
ENDBRANCH  19  20
ENDBRANCH   1  19
TORSDOF 14
ENDMDL
MODEL 6
REMARK VINA RESULT:    -7.522      6.891     12.868
REMARK INTER + INTRA:         -14.634
REMARK INTER:                 -13.231
REMARK INTRA:                  -1.403
REMARK UNBOUND:                -1.176
REMARK  Name = cpd295.pdb
REMARK  18 active torsions:
REMARK  status: ('A' for Active; 'I' for Inactive)
REMARK    1  A    between atoms: C_1  and  C_2
REMARK    2  A    between atoms: C_2  and  C_3
REMARK    3  A    between atoms: C_2  and  C_20
REMARK    4  A    between atoms: C_3  and  C_4
REMARK    5  A    between atoms: C_4  and  C_5
REMARK    6  A    between atoms: C_6  and  C_7
REMARK    7  A    between atoms: C_7  and  O_8
REMARK    8  A    between atoms: C_12  and  C_13
REMARK    9  A    between atoms: C_12  and  C_14
REMARK   10  A    between atoms: C_18  and  C_19
REMARK   11  A    between atoms: C_20  and  C_21
REMARK   12  A    between atoms: C_21  and  O_23
REMARK   13  A    between atoms: O_23  and  C_24
REMARK   14  A    between atoms: C_24  and  C_25
REMARK   15  A    between atoms: C_25  and  C_26
REMARK   16  A    between atoms: C_26  and  C_27
REMARK   17  A    between atoms: C_27  and  C_28
REMARK   18  A    between atoms: C_28  and  N_29
REMARK                            x       y       z     vdW  Elec       q    Type
REMARK                         _______ _______ _______ _____ _____    ______ ____
ROOT
ATOM      1  C   UNL     1      35.500 -35.947 -29.996  0.00  0.00    -0.049 C 
ENDROOT
BRANCH   1   3
ATOM      2  C   UNL     1      35.854 -33.573 -30.867  0.00  0.00    -0.062 C 
ATOM      3  C   UNL     1      34.934 -34.795 -30.855  0.00  0.00    -0.034 C 
BRANCH   3   4
ATOM      4  C   UNL     1      33.528 -34.374 -30.368  0.00  0.00    +0.048 C 
BRANCH   4   5
ATOM      5  C   UNL     1      32.620 -33.948 -31.502  0.00  0.00    +0.307 C 
ATOM      6  O   UNL     1      32.897 -34.043 -32.689  0.00  0.00    -0.251 OA
BRANCH   5   7
ATOM      7  O   UNL     1      31.413 -33.567 -31.000  0.00  0.00    -0.465 OA
BRANCH   7   8
ATOM      8  C   UNL     1      30.975 -32.251 -31.370  0.00  0.00    +0.092 C 
BRANCH   8   9
ATOM      9  C   UNL     1      32.050 -31.273 -30.910  0.00  0.00    -0.018 C 
BRANCH   9  10
ATOM     10  C   UNL     1      31.661 -30.520 -29.636  0.00  0.00    -0.049 C 
BRANCH  10  11
ATOM     11  C   UNL     1      30.207 -30.807 -29.244  0.00  0.00    -0.040 C 
BRANCH  11  12
ATOM     12  C   UNL     1      29.457 -29.521 -28.866  0.00  0.00    -0.001 C 
BRANCH  12  13
ATOM     13  N   UNL     1      28.142 -29.802 -28.284  0.00  0.00    -0.302 N 
ATOM     14  C   UNL     1      28.116 -31.067 -27.539  0.00  0.00    -0.001 C 
ATOM     15  C   UNL     1      26.951 -30.920 -26.566  0.00  0.00    -0.039 C 
ATOM     16  C   UNL     1      26.596 -29.441 -26.583  0.00  0.00    -0.039 C 
ATOM     17  C   UNL     1      27.754 -28.781 -27.307  0.00  0.00    -0.001 C 
ATOM     18  H   UNL     1      27.509 -29.829 -29.083  0.00  0.00    +0.000 HD
ENDBRANCH  12  13
ENDBRANCH  11  12
ENDBRANCH  10  11
ENDBRANCH   9  10
ENDBRANCH   8   9
ENDBRANCH   7   8
ENDBRANCH   5   7
ENDBRANCH   4   5
ENDBRANCH   3   4
ENDBRANCH   1   3
BRANCH   1  19
ATOM     19  C   UNL     1      36.471 -36.921 -30.692  0.00  0.00    -0.046 C 
BRANCH  19  20
ATOM     20  C   UNL     1      38.032 -36.797 -30.321  0.00  0.00    -0.012 C 
ATOM     21  C   UNL     1      38.401 -37.956 -29.352  0.00  0.00    -0.045 C 
ATOM     22  C   UNL     1      39.680 -37.955 -28.968  0.00  0.00    -0.082 C 
ATOM     23  C   UNL     1      40.564 -37.006 -29.685  0.00  0.00    -0.031 C 
ATOM     24  C   UNL     1      40.066 -36.866 -31.208  0.00  0.00    -0.027 C 
ATOM     25  C   UNL     1      41.472 -36.876 -32.136  0.00  0.00    -0.031 C 
ATOM     26  C   UNL     1      41.161 -36.975 -33.661  0.00  0.00    -0.060 C 
ATOM     27  C   UNL     1      42.395 -38.093 -31.849  0.00  0.00    -0.060 C 
ATOM     28  C   UNL     1      42.253 -35.587 -31.847  0.00  0.00    -0.048 C 
ATOM     29  C   UNL     1      41.308 -34.410 -31.901  0.00  0.00    -0.052 C 
ATOM     30  C   UNL     1      39.980 -34.749 -31.213  0.00  0.00    -0.047 C 
ATOM     31  C   UNL     1      39.314 -36.387 -31.662  0.00  0.00    -0.022 C 
ATOM     32  C   UNL     1      38.562 -35.909 -32.116  0.00  0.00    -0.059 C 
BRANCH  21  33
ATOM     33  C   UNL     1      37.384 -38.933 -28.819  0.00  0.00    +0.066 C 
BRANCH  33  34
ATOM     34  O   UNL     1      36.766 -38.457 -27.630  0.00  0.00    -0.391 OA
ATOM     35  H   UNL     1      36.243 -37.666 -27.832  0.00  0.00    +0.000 HD
ENDBRANCH  33  34
ENDBRANCH  21  33
ENDBRANCH  19  20
ENDBRANCH   1  19
TORSDOF 14
ENDMDL
MODEL 7
REMARK VINA RESULT:    -6.815     17.645     21.117
REMARK INTER + INTRA:         -13.370
REMARK INTER:                  -9.997
REMARK INTRA:                  -3.372
REMARK UNBOUND:                -1.176
REMARK  Name = cpd295.pdb
REMARK  18 active torsions:
REMARK  status: ('A' for Active; 'I' for Inactive)
REMARK    1  A    between atoms: C_1  and  C_2
REMARK    2  A    between atoms: C_2  and  C_3
REMARK    3  A    between atoms: C_2  and  C_20
REMARK    4  A    between atoms: C_3  and  C_4
REMARK    5  A    between atoms: C_4  and  C_5
REMARK    6  A    between atoms: C_6  and  C_7
REMARK    7  A    between atoms: C_7  and  O_8
REMARK    8  A    between atoms: C_12  and  C_13
REMARK    9  A    between atoms: C_12  and  C_14
REMARK   10  A    between atoms: C_18  and  C_19
REMARK   11  A    between atoms: C_20  and  C_21
REMARK   12  A    between atoms: C_21  and  O_23
REMARK   13  A    between atoms: O_23  and  C_24
REMARK   14  A    between atoms: C_24  and  C_25
REMARK   15  A    between atoms: C_25  and  C_26
REMARK   16  A    between atoms: C_26  and  C_27
REMARK   17  A    between atoms: C_27  and  C_28
REMARK   18  A    between atoms: C_28  and  N_29
REMARK                            x       y       z     vdW  Elec       q    Type
REMARK                         _______ _______ _______ _____ _____    ______ ____
ROOT
ATOM      1  C   UNL     1      40.888 -19.309 -37.985  0.00  0.00    -0.049 C 
ENDROOT
BRANCH   1   3
ATOM      2  C   UNL     1      39.375 -21.183 -38.833  0.00  0.00    -0.062 C 
ATOM      3  C   UNL     1      40.361 -20.742 -37.750  0.00  0.00    -0.034 C 
BRANCH   3   4
ATOM      4  C   UNL     1      39.692 -20.871 -36.362  0.00  0.00    +0.048 C 
BRANCH   4   5
ATOM      5  C   UNL     1      40.166 -22.086 -35.595  0.00  0.00    +0.307 C 
ATOM      6  O   UNL     1      40.671 -23.077 -36.103  0.00  0.00    -0.251 OA
BRANCH   5   7
ATOM      7  O   UNL     1      40.059 -21.851 -34.258  0.00  0.00    -0.465 OA
BRANCH   7   8
ATOM      8  C   UNL     1      41.296 -21.830 -33.530  0.00  0.00    +0.092 C 
BRANCH   8   9
ATOM      9  C   UNL     1      41.374 -20.486 -32.814  0.00  0.00    -0.018 C 
BRANCH   9  10
ATOM     10  C   UNL     1      42.067 -19.409 -33.650  0.00  0.00    -0.049 C 
BRANCH  10  11
ATOM     11  C   UNL     1      43.272 -19.982 -34.406  0.00  0.00    -0.040 C 
BRANCH  11  12
ATOM     12  C   UNL     1      44.514 -19.093 -34.250  0.00  0.00    -0.001 C 
BRANCH  12  13
ATOM     13  N   UNL     1      45.269 -18.978 -35.501  0.00  0.00    -0.302 N 
ATOM     14  C   UNL     1      46.651 -18.529 -35.284  0.00  0.00    -0.001 C 
ATOM     15  C   UNL     1      47.413 -19.013 -36.513  0.00  0.00    -0.039 C 
ATOM     16  C   UNL     1      46.486 -20.006 -37.197  0.00  0.00    -0.039 C 
ATOM     17  C   UNL     1      45.395 -20.272 -36.176  0.00  0.00    -0.001 C 
ATOM     18  H   UNL     1      44.742 -18.304 -36.056  0.00  0.00    +0.000 HD
ENDBRANCH  12  13
ENDBRANCH  11  12
ENDBRANCH  10  11
ENDBRANCH   9  10
ENDBRANCH   8   9
ENDBRANCH   7   8
ENDBRANCH   5   7
ENDBRANCH   4   5
ENDBRANCH   3   4
ENDBRANCH   1   3
BRANCH   1  19
ATOM     19  C   UNL     1      42.417 -19.116 -37.949  0.00  0.00    -0.046 C 
BRANCH  19  20
ATOM     20  C   UNL     1      43.185 -19.049 -39.362  0.00  0.00    -0.012 C 
ATOM     21  C   UNL     1      43.878 -17.662 -39.479  0.00  0.00    -0.045 C 
ATOM     22  C   UNL     1      44.549 -17.486 -40.620  0.00  0.00    -0.082 C 
ATOM     23  C   UNL     1      44.703 -18.693 -41.465  0.00  0.00    -0.031 C 
ATOM     24  C   UNL     1      44.829 -19.988 -40.520  0.00  0.00    -0.027 C 
ATOM     25  C   UNL     1      46.049 -20.922 -41.210  0.00  0.00    -0.031 C 
ATOM     26  C   UNL     1      46.459 -22.114 -40.291  0.00  0.00    -0.060 C 
ATOM     27  C   UNL     1      47.373 -20.140 -41.442  0.00  0.00    -0.060 C 
ATOM     28  C   UNL     1      45.550 -21.454 -42.560  0.00  0.00    -0.048 C 
ATOM     29  C   UNL     1      44.159 -22.017 -42.388  0.00  0.00    -0.052 C 
ATOM     30  C   UNL     1      43.314 -21.109 -41.488  0.00  0.00    -0.047 C 
ATOM     31  C   UNL     1      44.183 -20.538 -39.990  0.00  0.00    -0.022 C 
ATOM     32  C   UNL     1      43.538 -21.088 -39.459  0.00  0.00    -0.059 C 
BRANCH  21  33
ATOM     33  C   UNL     1      43.724 -16.579 -38.441  0.00  0.00    +0.066 C 
BRANCH  33  34
ATOM     34  O   UNL     1      44.716 -16.676 -37.426  0.00  0.00    -0.391 OA
ATOM     35  H   UNL     1      45.284 -15.891 -37.453  0.00  0.00    +0.000 HD
ENDBRANCH  33  34
ENDBRANCH  21  33
ENDBRANCH  19  20
ENDBRANCH   1  19
TORSDOF 14
ENDMDL
MODEL 8
REMARK VINA RESULT:    -6.766     18.684     21.848
REMARK INTER + INTRA:         -13.281
REMARK INTER:                  -9.670
REMARK INTRA:                  -3.612
REMARK UNBOUND:                -1.176
REMARK  Name = cpd295.pdb
REMARK  18 active torsions:
REMARK  status: ('A' for Active; 'I' for Inactive)
REMARK    1  A    between atoms: C_1  and  C_2
REMARK    2  A    between atoms: C_2  and  C_3
REMARK    3  A    between atoms: C_2  and  C_20
REMARK    4  A    between atoms: C_3  and  C_4
REMARK    5  A    between atoms: C_4  and  C_5
REMARK    6  A    between atoms: C_6  and  C_7
REMARK    7  A    between atoms: C_7  and  O_8
REMARK    8  A    between atoms: C_12  and  C_13
REMARK    9  A    between atoms: C_12  and  C_14
REMARK   10  A    between atoms: C_18  and  C_19
REMARK   11  A    between atoms: C_20  and  C_21
REMARK   12  A    between atoms: C_21  and  O_23
REMARK   13  A    between atoms: O_23  and  C_24
REMARK   14  A    between atoms: C_24  and  C_25
REMARK   15  A    between atoms: C_25  and  C_26
REMARK   16  A    between atoms: C_26  and  C_27
REMARK   17  A    between atoms: C_27  and  C_28
REMARK   18  A    between atoms: C_28  and  N_29
REMARK                            x       y       z     vdW  Elec       q    Type
REMARK                         _______ _______ _______ _____ _____    ______ ____
ROOT
ATOM      1  C   UNL     1      45.956 -15.822 -37.867  0.00  0.00    -0.049 C 
ENDROOT
BRANCH   1   3
ATOM      2  C   UNL     1      44.891 -16.211 -35.579  0.00  0.00    -0.062 C 
ATOM      3  C   UNL     1      45.857 -16.749 -36.636  0.00  0.00    -0.034 C 
BRANCH   3   4
ATOM      4  C   UNL     1      47.245 -16.978 -35.995  0.00  0.00    +0.048 C 
BRANCH   4   5
ATOM      5  C   UNL     1      47.250 -18.122 -35.004  0.00  0.00    +0.307 C 
ATOM      6  O   UNL     1      47.202 -17.990 -33.789  0.00  0.00    -0.251 OA
BRANCH   5   7
ATOM      7  O   UNL     1      47.190 -19.305 -35.674  0.00  0.00    -0.465 OA
BRANCH   7   8
ATOM      8  C   UNL     1      46.285 -20.280 -35.133  0.00  0.00    +0.092 C 
BRANCH   8   9
ATOM      9  C   UNL     1      44.949 -20.096 -35.845  0.00  0.00    -0.018 C 
BRANCH   9  10
ATOM     10  C   UNL     1      43.786 -19.881 -34.875  0.00  0.00    -0.049 C 
BRANCH  10  11
ATOM     11  C   UNL     1      42.551 -19.333 -35.602  0.00  0.00    -0.040 C 
BRANCH  11  12
ATOM     12  C   UNL     1      41.428 -20.378 -35.678  0.00  0.00    -0.001 C 
BRANCH  12  13
ATOM     13  N   UNL     1      41.099 -20.731 -37.062  0.00  0.00    -0.302 N 
ATOM     14  C   UNL     1      41.445 -22.121 -37.386  0.00  0.00    -0.001 C 
ATOM     15  C   UNL     1      40.552 -22.478 -38.569  0.00  0.00    -0.039 C 
ATOM     16  C   UNL     1      39.506 -21.375 -38.631  0.00  0.00    -0.039 C 
ATOM     17  C   UNL     1      39.659 -20.632 -37.317  0.00  0.00    -0.001 C 
ATOM     18  H   UNL     1      41.635 -20.073 -37.628  0.00  0.00    +0.000 HD
ENDBRANCH  12  13
ENDBRANCH  11  12
ENDBRANCH  10  11
ENDBRANCH   9  10
ENDBRANCH   8   9
ENDBRANCH   7   8
ENDBRANCH   5   7
ENDBRANCH   4   5
ENDBRANCH   3   4
ENDBRANCH   1   3
BRANCH   1  19
ATOM     19  C   UNL     1      45.381 -16.360 -39.192  0.00  0.00    -0.046 C 
BRANCH  19  20
ATOM     20  C   UNL     1      44.968 -17.916 -39.239  0.00  0.00    -0.012 C 
ATOM     21  C   UNL     1      43.433 -18.010 -39.463  0.00  0.00    -0.045 C 
ATOM     22  C   UNL     1      42.969 -19.261 -39.516  0.00  0.00    -0.082 C 
ATOM     23  C   UNL     1      43.999 -20.325 -39.574  0.00  0.00    -0.031 C 
ATOM     24  C   UNL     1      45.271 -19.785 -40.397  0.00  0.00    -0.027 C 
ATOM     25  C   UNL     1      45.734 -21.067 -41.387  0.00  0.00    -0.031 C 
ATOM     26  C   UNL     1      46.821 -20.640 -42.421  0.00  0.00    -0.060 C 
ATOM     27  C   UNL     1      44.574 -21.632 -42.254  0.00  0.00    -0.060 C 
ATOM     28  C   UNL     1      46.277 -22.195 -40.498  0.00  0.00    -0.048 C 
ATOM     29  C   UNL     1      47.244 -21.613 -39.494  0.00  0.00    -0.052 C 
ATOM     30  C   UNL     1      46.710 -20.293 -38.928  0.00  0.00    -0.047 C 
ATOM     31  C   UNL     1      46.031 -19.168 -40.193  0.00  0.00    -0.022 C 
ATOM     32  C   UNL     1      46.792 -18.551 -39.989  0.00  0.00    -0.059 C 
BRANCH  21  33
ATOM     33  C   UNL     1      42.536 -16.799 -39.517  0.00  0.00    +0.066 C 
BRANCH  33  34
ATOM     34  O   UNL     1      42.070 -16.429 -38.226  0.00  0.00    -0.391 OA
ATOM     35  H   UNL     1      41.137 -16.674 -38.136  0.00  0.00    +0.000 HD
ENDBRANCH  33  34
ENDBRANCH  21  33
ENDBRANCH  19  20
ENDBRANCH   1  19
TORSDOF 14
ENDMDL
MODEL 9
REMARK VINA RESULT:    -6.741     17.383     19.983
REMARK INTER + INTRA:         -13.237
REMARK INTER:                 -11.321
REMARK INTRA:                  -1.916
REMARK UNBOUND:                -1.176
REMARK  Name = cpd295.pdb
REMARK  18 active torsions:
REMARK  status: ('A' for Active; 'I' for Inactive)
REMARK    1  A    between atoms: C_1  and  C_2
REMARK    2  A    between atoms: C_2  and  C_3
REMARK    3  A    between atoms: C_2  and  C_20
REMARK    4  A    between atoms: C_3  and  C_4
REMARK    5  A    between atoms: C_4  and  C_5
REMARK    6  A    between atoms: C_6  and  C_7
REMARK    7  A    between atoms: C_7  and  O_8
REMARK    8  A    between atoms: C_12  and  C_13
REMARK    9  A    between atoms: C_12  and  C_14
REMARK   10  A    between atoms: C_18  and  C_19
REMARK   11  A    between atoms: C_20  and  C_21
REMARK   12  A    between atoms: C_21  and  O_23
REMARK   13  A    between atoms: O_23  and  C_24
REMARK   14  A    between atoms: C_24  and  C_25
REMARK   15  A    between atoms: C_25  and  C_26
REMARK   16  A    between atoms: C_26  and  C_27
REMARK   17  A    between atoms: C_27  and  C_28
REMARK   18  A    between atoms: C_28  and  N_29
REMARK                            x       y       z     vdW  Elec       q    Type
REMARK                         _______ _______ _______ _____ _____    ______ ____
ROOT
ATOM      1  C   UNL     1      43.930 -19.014 -36.956  0.00  0.00    -0.049 C 
ENDROOT
BRANCH   1   3
ATOM      2  C   UNL     1      46.251 -20.078 -36.926  0.00  0.00    -0.062 C 
ATOM      3  C   UNL     1      45.433 -18.831 -37.263  0.00  0.00    -0.034 C 
BRANCH   3   4
ATOM      4  C   UNL     1      46.014 -17.615 -36.505  0.00  0.00    +0.048 C 
BRANCH   4   5
ATOM      5  C   UNL     1      46.364 -16.465 -37.426  0.00  0.00    +0.307 C 
ATOM      6  O   UNL     1      46.193 -15.284 -37.159  0.00  0.00    -0.251 OA
BRANCH   5   7
ATOM      7  O   UNL     1      47.006 -16.943 -38.527  0.00  0.00    -0.465 OA
BRANCH   7   8
ATOM      8  C   UNL     1      46.575 -16.395 -39.783  0.00  0.00    +0.092 C 
BRANCH   8   9
ATOM      9  C   UNL     1      47.224 -17.227 -40.883  0.00  0.00    -0.018 C 
BRANCH   9  10
ATOM     10  C   UNL     1      46.857 -18.710 -40.799  0.00  0.00    -0.049 C 
BRANCH  10  11
ATOM     11  C   UNL     1      45.343 -18.915 -40.929  0.00  0.00    -0.040 C 
BRANCH  11  12
ATOM     12  C   UNL     1      44.961 -20.399 -40.823  0.00  0.00    -0.001 C 
BRANCH  12  13
ATOM     13  N   UNL     1      46.029 -21.278 -41.305  0.00  0.00    -0.302 N 
ATOM     14  C   UNL     1      46.450 -22.258 -40.295  0.00  0.00    -0.001 C 
ATOM     15  C   UNL     1      47.080 -23.393 -41.094  0.00  0.00    -0.039 C 
ATOM     16  C   UNL     1      46.673 -23.142 -42.539  0.00  0.00    -0.039 C 
ATOM     17  C   UNL     1      45.593 -22.081 -42.450  0.00  0.00    -0.001 C 
ATOM     18  H   UNL     1      46.791 -20.644 -41.548  0.00  0.00    +0.000 HD
ENDBRANCH  12  13
ENDBRANCH  11  12
ENDBRANCH  10  11
ENDBRANCH   9  10
ENDBRANCH   8   9
ENDBRANCH   7   8
ENDBRANCH   5   7
ENDBRANCH   4   5
ENDBRANCH   3   4
ENDBRANCH   1   3
BRANCH   1  19
ATOM     19  C   UNL     1      43.444 -20.452 -36.693  0.00  0.00    -0.046 C 
BRANCH  19  20
ATOM     20  C   UNL     1      41.926 -20.638 -36.189  0.00  0.00    -0.012 C 
ATOM     21  C   UNL     1      41.162 -21.493 -37.239  0.00  0.00    -0.045 C 
ATOM     22  C   UNL     1      39.881 -21.712 -36.930  0.00  0.00    -0.082 C 
ATOM     23  C   UNL     1      39.472 -21.303 -35.566  0.00  0.00    -0.031 C 
ATOM     24  C   UNL     1      40.706 -21.516 -34.557  0.00  0.00    -0.027 C 
ATOM     25  C   UNL     1      40.030 -22.186 -33.167  0.00  0.00    -0.031 C 
ATOM     26  C   UNL     1      41.123 -22.667 -32.163  0.00  0.00    -0.060 C 
ATOM     27  C   UNL     1      39.173 -23.453 -33.442  0.00  0.00    -0.060 C 
ATOM     28  C   UNL     1      39.142 -21.127 -32.500  0.00  0.00    -0.048 C 
ATOM     29  C   UNL     1      39.894 -19.819 -32.432  0.00  0.00    -0.052 C 
ATOM     30  C   UNL     1      40.655 -19.563 -33.738  0.00  0.00    -0.047 C 
ATOM     31  C   UNL     1      41.554 -21.021 -34.366  0.00  0.00    -0.022 C 
ATOM     32  C   UNL     1      42.401 -20.525 -34.176  0.00  0.00    -0.059 C 
BRANCH  21  33
ATOM     33  C   UNL     1      41.784 -21.950 -38.534  0.00  0.00    +0.066 C 
BRANCH  33  34
ATOM     34  O   UNL     1      41.331 -23.246 -38.909  0.00  0.00    -0.391 OA
ATOM     35  H   UNL     1      41.794 -23.529 -39.712  0.00  0.00    +0.000 HD
ENDBRANCH  33  34
ENDBRANCH  21  33
ENDBRANCH  19  20
ENDBRANCH   1  19
TORSDOF 14
ENDMDL
MODEL 10
REMARK VINA RESULT:    -6.696     17.200     21.057
REMARK INTER + INTRA:         -13.157
REMARK INTER:                 -10.604
REMARK INTRA:                  -2.554
REMARK UNBOUND:                -1.176
REMARK  Name = cpd295.pdb
REMARK  18 active torsions:
REMARK  status: ('A' for Active; 'I' for Inactive)
REMARK    1  A    between atoms: C_1  and  C_2
REMARK    2  A    between atoms: C_2  and  C_3
REMARK    3  A    between atoms: C_2  and  C_20
REMARK    4  A    between atoms: C_3  and  C_4
REMARK    5  A    between atoms: C_4  and  C_5
REMARK    6  A    between atoms: C_6  and  C_7
REMARK    7  A    between atoms: C_7  and  O_8
REMARK    8  A    between atoms: C_12  and  C_13
REMARK    9  A    between atoms: C_12  and  C_14
REMARK   10  A    between atoms: C_18  and  C_19
REMARK   11  A    between atoms: C_20  and  C_21
REMARK   12  A    between atoms: C_21  and  O_23
REMARK   13  A    between atoms: O_23  and  C_24
REMARK   14  A    between atoms: C_24  and  C_25
REMARK   15  A    between atoms: C_25  and  C_26
REMARK   16  A    between atoms: C_26  and  C_27
REMARK   17  A    between atoms: C_27  and  C_28
REMARK   18  A    between atoms: C_28  and  N_29
REMARK                            x       y       z     vdW  Elec       q    Type
REMARK                         _______ _______ _______ _____ _____    ______ ____
ROOT
ATOM      1  C   UNL     1      41.965 -19.905 -37.060  0.00  0.00    -0.049 C 
ENDROOT
BRANCH   1   3
ATOM      2  C   UNL     1      40.361 -19.336 -38.964  0.00  0.00    -0.062 C 
ATOM      3  C   UNL     1      40.825 -20.405 -37.974  0.00  0.00    -0.034 C 
BRANCH   3   4
ATOM      4  C   UNL     1      39.617 -20.894 -37.142  0.00  0.00    +0.048 C 
BRANCH   4   5
ATOM      5  C   UNL     1      39.901 -22.180 -36.396  0.00  0.00    +0.307 C 
ATOM      6  O   UNL     1      40.496 -23.140 -36.866  0.00  0.00    -0.251 OA
BRANCH   5   7
ATOM      7  O   UNL     1      39.508 -22.051 -35.099  0.00  0.00    -0.465 OA
BRANCH   7   8
ATOM      8  C   UNL     1      40.421 -22.567 -34.119  0.00  0.00    +0.092 C 
BRANCH   8   9
ATOM      9  C   UNL     1      41.373 -21.435 -33.750  0.00  0.00    -0.018 C 
BRANCH   9  10
ATOM     10  C   UNL     1      41.014 -20.769 -32.420  0.00  0.00    -0.049 C 
BRANCH  10  11
ATOM     11  C   UNL     1      40.361 -19.399 -32.644  0.00  0.00    -0.040 C 
BRANCH  11  12
ATOM     12  C   UNL     1      38.831 -19.508 -32.728  0.00  0.00    -0.001 C 
BRANCH  12  13
ATOM     13  N   UNL     1      38.347 -19.395 -34.106  0.00  0.00    -0.302 N 
ATOM     14  C   UNL     1      36.904 -19.647 -34.218  0.00  0.00    -0.001 C 
ATOM     15  C   UNL     1      36.485 -18.947 -35.505  0.00  0.00    -0.039 C 
ATOM     16  C   UNL     1      37.657 -18.049 -35.875  0.00  0.00    -0.039 C 
ATOM     17  C   UNL     1      38.534 -18.042 -34.637  0.00  0.00    -0.001 C 
ATOM     18  H   UNL     1      38.885 -20.089 -34.624  0.00  0.00    +0.000 HD
ENDBRANCH  12  13
ENDBRANCH  11  12
ENDBRANCH  10  11
ENDBRANCH   9  10
ENDBRANCH   8   9
ENDBRANCH   7   8
ENDBRANCH   5   7
ENDBRANCH   4   5
ENDBRANCH   3   4
ENDBRANCH   1   3
BRANCH   1  19
ATOM     19  C   UNL     1      43.217 -20.799 -36.957  0.00  0.00    -0.046 C 
BRANCH  19  20
ATOM     20  C   UNL     1      44.552 -20.287 -37.698  0.00  0.00    -0.012 C 
ATOM     21  C   UNL     1      45.672 -20.120 -36.632  0.00  0.00    -0.045 C 
ATOM     22  C   UNL     1      46.834 -19.693 -37.131  0.00  0.00    -0.082 C 
ATOM     23  C   UNL     1      46.926 -19.664 -38.609  0.00  0.00    -0.031 C 
ATOM     24  C   UNL     1      46.059 -20.875 -39.217  0.00  0.00    -0.027 C 
ATOM     25  C   UNL     1      47.004 -21.517 -40.455  0.00  0.00    -0.031 C 
ATOM     26  C   UNL     1      46.411 -22.849 -41.008  0.00  0.00    -0.060 C 
ATOM     27  C   UNL     1      48.445 -21.892 -40.005  0.00  0.00    -0.060 C 
ATOM     28  C   UNL     1      47.096 -20.480 -41.583  0.00  0.00    -0.048 C 
ATOM     29  C   UNL     1      45.716 -19.940 -41.874  0.00  0.00    -0.052 C 
ATOM     30  C   UNL     1      44.948 -19.686 -40.572  0.00  0.00    -0.047 C 
ATOM     31  C   UNL     1      45.083 -21.041 -39.358  0.00  0.00    -0.022 C 
ATOM     32  C   UNL     1      44.108 -21.206 -39.500  0.00  0.00    -0.059 C 
BRANCH  21  33
ATOM     33  C   UNL     1      45.437 -20.327 -35.157  0.00  0.00    +0.066 C 
BRANCH  33  34
ATOM     34  O   UNL     1      46.525 -21.004 -34.540  0.00  0.00    -0.391 OA
ATOM     35  H   UNL     1      47.146 -20.354 -34.177  0.00  0.00    +0.000 HD
ENDBRANCH  33  34
ENDBRANCH  21  33
ENDBRANCH  19  20
ENDBRANCH   1  19
TORSDOF 14
ENDMDL
MODEL 11
REMARK VINA RESULT:    -6.689     18.118     21.251
REMARK INTER + INTRA:         -13.144
REMARK INTER:                  -9.748
REMARK INTRA:                  -3.396
REMARK UNBOUND:                -1.176
REMARK  Name = cpd295.pdb
REMARK  18 active torsions:
REMARK  status: ('A' for Active; 'I' for Inactive)
REMARK    1  A    between atoms: C_1  and  C_2
REMARK    2  A    between atoms: C_2  and  C_3
REMARK    3  A    between atoms: C_2  and  C_20
REMARK    4  A    between atoms: C_3  and  C_4
REMARK    5  A    between atoms: C_4  and  C_5
REMARK    6  A    between atoms: C_6  and  C_7
REMARK    7  A    between atoms: C_7  and  O_8
REMARK    8  A    between atoms: C_12  and  C_13
REMARK    9  A    between atoms: C_12  and  C_14
REMARK   10  A    between atoms: C_18  and  C_19
REMARK   11  A    between atoms: C_20  and  C_21
REMARK   12  A    between atoms: C_21  and  O_23
REMARK   13  A    between atoms: O_23  and  C_24
REMARK   14  A    between atoms: C_24  and  C_25
REMARK   15  A    between atoms: C_25  and  C_26
REMARK   16  A    between atoms: C_26  and  C_27
REMARK   17  A    between atoms: C_27  and  C_28
REMARK   18  A    between atoms: C_28  and  N_29
REMARK                            x       y       z     vdW  Elec       q    Type
REMARK                         _______ _______ _______ _____ _____    ______ ____
ROOT
ATOM      1  C   UNL     1      41.282 -19.525 -35.954  0.00  0.00    -0.049 C 
ENDROOT
BRANCH   1   3
ATOM      2  C   UNL     1      41.065 -22.046 -35.609  0.00  0.00    -0.062 C 
ATOM      3  C   UNL     1      42.010 -20.844 -35.613  0.00  0.00    -0.034 C 
BRANCH   3   4
ATOM      4  C   UNL     1      42.727 -20.749 -34.246  0.00  0.00    +0.048 C 
BRANCH   4   5
ATOM      5  C   UNL     1      41.928 -19.975 -33.219  0.00  0.00    +0.307 C 
ATOM      6  O   UNL     1      40.849 -20.328 -32.767  0.00  0.00    -0.251 OA
BRANCH   5   7
ATOM      7  O   UNL     1      42.652 -18.904 -32.793  0.00  0.00    -0.465 OA
BRANCH   7   8
ATOM      8  C   UNL     1      41.990 -17.633 -32.882  0.00  0.00    +0.092 C 
BRANCH   8   9
ATOM      9  C   UNL     1      43.063 -16.585 -33.159  0.00  0.00    -0.018 C 
BRANCH   9  10
ATOM     10  C   UNL     1      43.026 -16.065 -34.597  0.00  0.00    -0.049 C 
BRANCH  10  11
ATOM     11  C   UNL     1      43.941 -16.892 -35.509  0.00  0.00    -0.040 C 
BRANCH  11  12
ATOM     12  C   UNL     1      45.385 -16.371 -35.486  0.00  0.00    -0.001 C 
BRANCH  12  13
ATOM     13  N   UNL     1      46.362 -17.460 -35.398  0.00  0.00    -0.302 N 
ATOM     14  C   UNL     1      45.746 -18.737 -35.015  0.00  0.00    -0.001 C 
ATOM     15  C   UNL     1      46.711 -19.802 -35.525  0.00  0.00    -0.039 C 
ATOM     16  C   UNL     1      47.654 -19.071 -36.469  0.00  0.00    -0.039 C 
ATOM     17  C   UNL     1      46.998 -17.721 -36.692  0.00  0.00    -0.001 C 
ATOM     18  H   UNL     1      47.032 -17.146 -34.696  0.00  0.00    +0.000 HD
ENDBRANCH  12  13
ENDBRANCH  11  12
ENDBRANCH  10  11
ENDBRANCH   9  10
ENDBRANCH   8   9
ENDBRANCH   7   8
ENDBRANCH   5   7
ENDBRANCH   4   5
ENDBRANCH   3   4
ENDBRANCH   1   3
BRANCH   1  19
ATOM     19  C   UNL     1      41.423 -19.007 -37.398  0.00  0.00    -0.046 C 
BRANCH  19  20
ATOM     20  C   UNL     1      42.152 -19.971 -38.461  0.00  0.00    -0.012 C 
ATOM     21  C   UNL     1      41.061 -20.660 -39.329  0.00  0.00    -0.045 C 
ATOM     22  C   UNL     1      41.549 -21.494 -40.251  0.00  0.00    -0.082 C 
ATOM     23  C   UNL     1      43.018 -21.456 -40.436  0.00  0.00    -0.031 C 
ATOM     24  C   UNL     1      43.544 -19.956 -40.190  0.00  0.00    -0.027 C 
ATOM     25  C   UNL     1      44.675 -19.678 -41.407  0.00  0.00    -0.031 C 
ATOM     26  C   UNL     1      45.124 -18.185 -41.453  0.00  0.00    -0.060 C 
ATOM     27  C   UNL     1      44.132 -19.963 -42.835  0.00  0.00    -0.060 C 
ATOM     28  C   UNL     1      45.892 -20.579 -41.154  0.00  0.00    -0.048 C 
ATOM     29  C   UNL     1      46.290 -20.479 -39.700  0.00  0.00    -0.052 C 
ATOM     30  C   UNL     1      45.051 -20.482 -38.797  0.00  0.00    -0.047 C 
ATOM     31  C   UNL     1      43.710 -19.392 -39.380  0.00  0.00    -0.022 C 
ATOM     32  C   UNL     1      43.876 -18.829 -38.571  0.00  0.00    -0.059 C 
BRANCH  21  33
ATOM     33  C   UNL     1      39.584 -20.476 -39.087  0.00  0.00    +0.066 C 
BRANCH  33  34
ATOM     34  O   UNL     1      38.946 -21.705 -38.758  0.00  0.00    -0.391 OA
ATOM     35  H   UNL     1      38.287 -21.551 -38.064  0.00  0.00    +0.000 HD
ENDBRANCH  33  34
ENDBRANCH  21  33
ENDBRANCH  19  20
ENDBRANCH   1  19
TORSDOF 14
ENDMDL
MODEL 12
REMARK VINA RESULT:    -6.669     18.286     21.647
REMARK INTER + INTRA:         -13.108
REMARK INTER:                 -10.411
REMARK INTRA:                  -2.697
REMARK UNBOUND:                -1.176
REMARK  Name = cpd295.pdb
REMARK  18 active torsions:
REMARK  status: ('A' for Active; 'I' for Inactive)
REMARK    1  A    between atoms: C_1  and  C_2
REMARK    2  A    between atoms: C_2  and  C_3
REMARK    3  A    between atoms: C_2  and  C_20
REMARK    4  A    between atoms: C_3  and  C_4
REMARK    5  A    between atoms: C_4  and  C_5
REMARK    6  A    between atoms: C_6  and  C_7
REMARK    7  A    between atoms: C_7  and  O_8
REMARK    8  A    between atoms: C_12  and  C_13
REMARK    9  A    between atoms: C_12  and  C_14
REMARK   10  A    between atoms: C_18  and  C_19
REMARK   11  A    between atoms: C_20  and  C_21
REMARK   12  A    between atoms: C_21  and  O_23
REMARK   13  A    between atoms: O_23  and  C_24
REMARK   14  A    between atoms: C_24  and  C_25
REMARK   15  A    between atoms: C_25  and  C_26
REMARK   16  A    between atoms: C_26  and  C_27
REMARK   17  A    between atoms: C_27  and  C_28
REMARK   18  A    between atoms: C_28  and  N_29
REMARK                            x       y       z     vdW  Elec       q    Type
REMARK                         _______ _______ _______ _____ _____    ______ ____
ROOT
ATOM      1  C   UNL     1      42.613 -20.757 -35.965  0.00  0.00    -0.049 C 
ENDROOT
BRANCH   1   3
ATOM      2  C   UNL     1      41.024 -18.858 -35.343  0.00  0.00    -0.062 C 
ATOM      3  C   UNL     1      41.317 -19.997 -36.321  0.00  0.00    -0.034 C 
BRANCH   3   4
ATOM      4  C   UNL     1      40.104 -20.955 -36.371  0.00  0.00    +0.048 C 
BRANCH   4   5
ATOM      5  C   UNL     1      40.370 -22.193 -37.200  0.00  0.00    +0.307 C 
ATOM      6  O   UNL     1      40.477 -23.324 -36.748  0.00  0.00    -0.251 OA
BRANCH   5   7
ATOM      7  O   UNL     1      40.345 -21.869 -38.523  0.00  0.00    -0.465 OA
BRANCH   7   8
ATOM      8  C   UNL     1      41.470 -22.317 -39.293  0.00  0.00    +0.092 C 
BRANCH   8   9
ATOM      9  C   UNL     1      42.190 -21.074 -39.804  0.00  0.00    -0.018 C 
BRANCH   9  10
ATOM     10  C   UNL     1      43.171 -21.381 -40.937  0.00  0.00    -0.049 C 
BRANCH  10  11
ATOM     11  C   UNL     1      44.618 -21.396 -40.429  0.00  0.00    -0.040 C 
BRANCH  11  12
ATOM     12  C   UNL     1      45.569 -20.691 -41.408  0.00  0.00    -0.001 C 
BRANCH  12  13
ATOM     13  N   UNL     1      46.872 -21.358 -41.485  0.00  0.00    -0.302 N 
ATOM     14  C   UNL     1      47.457 -21.603 -40.160  0.00  0.00    -0.001 C 
ATOM     15  C   UNL     1      48.435 -22.754 -40.375  0.00  0.00    -0.039 C 
ATOM     16  C   UNL     1      48.096 -23.320 -41.746  0.00  0.00    -0.039 C 
ATOM     17  C   UNL     1      46.765 -22.684 -42.101  0.00  0.00    -0.001 C 
ATOM     18  H   UNL     1      47.451 -20.724 -42.035  0.00  0.00    +0.000 HD
ENDBRANCH  12  13
ENDBRANCH  11  12
ENDBRANCH  10  11
ENDBRANCH   9  10
ENDBRANCH   8   9
ENDBRANCH   7   8
ENDBRANCH   5   7
ENDBRANCH   4   5
ENDBRANCH   3   4
ENDBRANCH   1   3
BRANCH   1  19
ATOM     19  C   UNL     1      43.901 -20.311 -36.686  0.00  0.00    -0.046 C 
BRANCH  19  20
ATOM     20  C   UNL     1      44.494 -18.863 -36.308  0.00  0.00    -0.012 C 
ATOM     21  C   UNL     1      45.743 -19.064 -35.404  0.00  0.00    -0.045 C 
ATOM     22  C   UNL     1      46.323 -17.925 -35.020  0.00  0.00    -0.082 C 
ATOM     23  C   UNL     1      45.825 -16.697 -35.683  0.00  0.00    -0.031 C 
ATOM     24  C   UNL     1      45.407 -17.046 -37.197  0.00  0.00    -0.027 C 
ATOM     25  C   UNL     1      45.988 -15.765 -38.123  0.00  0.00    -0.031 C 
ATOM     26  C   UNL     1      45.866 -16.050 -39.651  0.00  0.00    -0.060 C 
ATOM     27  C   UNL     1      47.500 -15.476 -37.903  0.00  0.00    -0.060 C 
ATOM     28  C   UNL     1      45.190 -14.504 -37.764  0.00  0.00    -0.048 C 
ATOM     29  C   UNL     1      43.717 -14.836 -37.754  0.00  0.00    -0.052 C 
ATOM     30  C   UNL     1      43.471 -16.193 -37.086  0.00  0.00    -0.047 C 
ATOM     31  C   UNL     1      44.625 -17.500 -37.624  0.00  0.00    -0.022 C 
ATOM     32  C   UNL     1      43.843 -17.954 -38.051  0.00  0.00    -0.059 C 
BRANCH  21  33
ATOM     33  C   UNL     1      46.199 -20.420 -34.925  0.00  0.00    +0.066 C 
BRANCH  33  34
ATOM     34  O   UNL     1      45.503 -20.828 -33.753  0.00  0.00    -0.391 OA
ATOM     35  H   UNL     1      45.574 -21.789 -33.654  0.00  0.00    +0.000 HD
ENDBRANCH  33  34
ENDBRANCH  21  33
ENDBRANCH  19  20
ENDBRANCH   1  19
TORSDOF 14
ENDMDL
MODEL 13
REMARK VINA RESULT:    -6.442     17.544     21.318
REMARK INTER + INTRA:         -12.702
REMARK INTER:                 -10.135
REMARK INTRA:                  -2.567
REMARK UNBOUND:                -1.176
REMARK  Name = cpd295.pdb
REMARK  18 active torsions:
REMARK  status: ('A' for Active; 'I' for Inactive)
REMARK    1  A    between atoms: C_1  and  C_2
REMARK    2  A    between atoms: C_2  and  C_3
REMARK    3  A    between atoms: C_2  and  C_20
REMARK    4  A    between atoms: C_3  and  C_4
REMARK    5  A    between atoms: C_4  and  C_5
REMARK    6  A    between atoms: C_6  and  C_7
REMARK    7  A    between atoms: C_7  and  O_8
REMARK    8  A    between atoms: C_12  and  C_13
REMARK    9  A    between atoms: C_12  and  C_14
REMARK   10  A    between atoms: C_18  and  C_19
REMARK   11  A    between atoms: C_20  and  C_21
REMARK   12  A    between atoms: C_21  and  O_23
REMARK   13  A    between atoms: O_23  and  C_24
REMARK   14  A    between atoms: C_24  and  C_25
REMARK   15  A    between atoms: C_25  and  C_26
REMARK   16  A    between atoms: C_26  and  C_27
REMARK   17  A    between atoms: C_27  and  C_28
REMARK   18  A    between atoms: C_28  and  N_29
REMARK                            x       y       z     vdW  Elec       q    Type
REMARK                         _______ _______ _______ _____ _____    ______ ____
ROOT
ATOM      1  C   UNL     1      40.829 -19.296 -37.633  0.00  0.00    -0.049 C 
ENDROOT
BRANCH   1   3
ATOM      2  C   UNL     1      39.210 -19.701 -39.565  0.00  0.00    -0.062 C 
ATOM      3  C   UNL     1      40.104 -20.345 -38.504  0.00  0.00    -0.034 C 
BRANCH   3   4
ATOM      4  C   UNL     1      39.260 -21.305 -37.635  0.00  0.00    +0.048 C 
BRANCH   4   5
ATOM      5  C   UNL     1      40.109 -22.194 -36.752  0.00  0.00    +0.307 C 
ATOM      6  O   UNL     1      40.982 -22.949 -37.157  0.00  0.00    -0.251 OA
BRANCH   5   7
ATOM      7  O   UNL     1      39.837 -21.930 -35.444  0.00  0.00    -0.465 OA
BRANCH   7   8
ATOM      8  C   UNL     1      40.899 -22.214 -34.520  0.00  0.00    +0.092 C 
BRANCH   8   9
ATOM      9  C   UNL     1      41.733 -20.944 -34.390  0.00  0.00    -0.018 C 
BRANCH   9  10
ATOM     10  C   UNL     1      41.557 -20.255 -33.035  0.00  0.00    -0.049 C 
BRANCH  10  11
ATOM     11  C   UNL     1      40.716 -18.979 -33.167  0.00  0.00    -0.040 C 
BRANCH  11  12
ATOM     12  C   UNL     1      39.637 -18.896 -32.078  0.00  0.00    -0.001 C 
BRANCH  12  13
ATOM     13  N   UNL     1      38.348 -19.418 -32.539  0.00  0.00    -0.302 N 
ATOM     14  C   UNL     1      38.130 -19.189 -33.974  0.00  0.00    -0.001 C 
ATOM     15  C   UNL     1      37.109 -20.244 -34.384  0.00  0.00    -0.039 C 
ATOM     16  C   UNL     1      37.061 -21.231 -33.227  0.00  0.00    -0.039 C 
ATOM     17  C   UNL     1      38.262 -20.871 -32.372  0.00  0.00    -0.001 C 
ATOM     18  H   UNL     1      37.656 -18.925 -31.975  0.00  0.00    +0.000 HD
ENDBRANCH  12  13
ENDBRANCH  11  12
ENDBRANCH  10  11
ENDBRANCH   9  10
ENDBRANCH   8   9
ENDBRANCH   7   8
ENDBRANCH   5   7
ENDBRANCH   4   5
ENDBRANCH   3   4
ENDBRANCH   1   3
BRANCH   1  19
ATOM     19  C   UNL     1      42.364 -19.227 -37.761  0.00  0.00    -0.046 C 
BRANCH  19  20
ATOM     20  C   UNL     1      42.975 -19.096 -39.245  0.00  0.00    -0.012 C 
ATOM     21  C   UNL     1      43.501 -17.644 -39.433  0.00  0.00    -0.045 C 
ATOM     22  C   UNL     1      44.031 -17.412 -40.636  0.00  0.00    -0.082 C 
ATOM     23  C   UNL     1      44.227 -18.606 -41.491  0.00  0.00    -0.031 C 
ATOM     24  C   UNL     1      44.585 -19.870 -40.563  0.00  0.00    -0.027 C 
ATOM     25  C   UNL     1      45.822 -20.677 -41.371  0.00  0.00    -0.031 C 
ATOM     26  C   UNL     1      46.446 -21.808 -40.498  0.00  0.00    -0.060 C 
ATOM     27  C   UNL     1      47.025 -19.762 -41.737  0.00  0.00    -0.060 C 
ATOM     28  C   UNL     1      45.249 -21.275 -42.664  0.00  0.00    -0.048 C 
ATOM     29  C   UNL     1      43.950 -21.980 -42.351  0.00  0.00    -0.052 C 
ATOM     30  C   UNL     1      43.108 -21.155 -41.371  0.00  0.00    -0.047 C 
ATOM     31  C   UNL     1      44.058 -20.478 -39.969  0.00  0.00    -0.022 C 
ATOM     32  C   UNL     1      43.532 -21.087 -39.375  0.00  0.00    -0.059 C 
BRANCH  21  33
ATOM     33  C   UNL     1      43.338 -16.572 -38.386  0.00  0.00    +0.066 C 
BRANCH  33  34
ATOM     34  O   UNL     1      42.192 -15.765 -38.630  0.00  0.00    -0.391 OA
ATOM     35  H   UNL     1      42.092 -15.627 -39.584  0.00  0.00    +0.000 HD
ENDBRANCH  33  34
ENDBRANCH  21  33
ENDBRANCH  19  20
ENDBRANCH   1  19
TORSDOF 14
ENDMDL
MODEL 14
REMARK VINA RESULT:    -6.355     17.149     19.945
REMARK INTER + INTRA:         -12.546
REMARK INTER:                 -10.016
REMARK INTRA:                  -2.530
REMARK UNBOUND:                -1.176
REMARK  Name = cpd295.pdb
REMARK  18 active torsions:
REMARK  status: ('A' for Active; 'I' for Inactive)
REMARK    1  A    between atoms: C_1  and  C_2
REMARK    2  A    between atoms: C_2  and  C_3
REMARK    3  A    between atoms: C_2  and  C_20
REMARK    4  A    between atoms: C_3  and  C_4
REMARK    5  A    between atoms: C_4  and  C_5
REMARK    6  A    between atoms: C_6  and  C_7
REMARK    7  A    between atoms: C_7  and  O_8
REMARK    8  A    between atoms: C_12  and  C_13
REMARK    9  A    between atoms: C_12  and  C_14
REMARK   10  A    between atoms: C_18  and  C_19
REMARK   11  A    between atoms: C_20  and  C_21
REMARK   12  A    between atoms: C_21  and  O_23
REMARK   13  A    between atoms: O_23  and  C_24
REMARK   14  A    between atoms: C_24  and  C_25
REMARK   15  A    between atoms: C_25  and  C_26
REMARK   16  A    between atoms: C_26  and  C_27
REMARK   17  A    between atoms: C_27  and  C_28
REMARK   18  A    between atoms: C_28  and  N_29
REMARK                            x       y       z     vdW  Elec       q    Type
REMARK                         _______ _______ _______ _____ _____    ______ ____
ROOT
ATOM      1  C   UNL     1      42.733 -20.820 -38.837  0.00  0.00    -0.049 C 
ENDROOT
BRANCH   1   3
ATOM      2  C   UNL     1      42.031 -21.768 -41.101  0.00  0.00    -0.062 C 
ATOM      3  C   UNL     1      42.979 -20.822 -40.361  0.00  0.00    -0.034 C 
BRANCH   3   4
ATOM      4  C   UNL     1      44.442 -21.200 -40.690  0.00  0.00    +0.048 C 
BRANCH   4   5
ATOM      5  C   UNL     1      45.002 -20.410 -41.853  0.00  0.00    +0.307 C 
ATOM      6  O   UNL     1      44.328 -19.877 -42.722  0.00  0.00    -0.251 OA
BRANCH   5   7
ATOM      7  O   UNL     1      46.350 -20.283 -41.709  0.00  0.00    -0.465 OA
BRANCH   7   8
ATOM      8  C   UNL     1      46.788 -19.656 -40.495  0.00  0.00    +0.092 C 
BRANCH   8   9
ATOM      9  C   UNL     1      46.767 -18.150 -40.733  0.00  0.00    -0.018 C 
BRANCH   9  10
ATOM     10  C   UNL     1      47.078 -17.345 -39.470  0.00  0.00    -0.049 C 
BRANCH  10  11
ATOM     11  C   UNL     1      46.076 -17.659 -38.352  0.00  0.00    -0.040 C 
BRANCH  11  12
ATOM     12  C   UNL     1      46.787 -18.008 -37.036  0.00  0.00    -0.001 C 
BRANCH  12  13
ATOM     13  N   UNL     1      45.873 -18.604 -36.058  0.00  0.00    -0.302 N 
ATOM     14  C   UNL     1      44.563 -17.941 -36.036  0.00  0.00    -0.001 C 
ATOM     15  C   UNL     1      43.611 -18.982 -35.458  0.00  0.00    -0.039 C 
ATOM     16  C   UNL     1      44.376 -20.297 -35.501  0.00  0.00    -0.039 C 
ATOM     17  C   UNL     1      45.581 -20.005 -36.375  0.00  0.00    -0.001 C 
ATOM     18  H   UNL     1      46.355 -18.505 -35.164  0.00  0.00    +0.000 HD
ENDBRANCH  12  13
ENDBRANCH  11  12
ENDBRANCH  10  11
ENDBRANCH   9  10
ENDBRANCH   8   9
ENDBRANCH   7   8
ENDBRANCH   5   7
ENDBRANCH   4   5
ENDBRANCH   3   4
ENDBRANCH   1   3
BRANCH   1  19
ATOM     19  C   UNL     1      41.378 -21.370 -38.350  0.00  0.00    -0.046 C 
BRANCH  19  20
ATOM     20  C   UNL     1      40.764 -20.735 -37.004  0.00  0.00    -0.012 C 
ATOM     21  C   UNL     1      39.795 -19.586 -37.400  0.00  0.00    -0.045 C 
ATOM     22  C   UNL     1      39.223 -18.976 -36.358  0.00  0.00    -0.082 C 
ATOM     23  C   UNL     1      39.432 -19.625 -35.042  0.00  0.00    -0.031 C 
ATOM     24  C   UNL     1      39.502 -21.219 -35.243  0.00  0.00    -0.027 C 
ATOM     25  C   UNL     1      38.600 -21.865 -33.976  0.00  0.00    -0.031 C 
ATOM     26  C   UNL     1      38.375 -23.399 -34.145  0.00  0.00    -0.060 C 
ATOM     27  C   UNL     1      37.166 -21.273 -33.870  0.00  0.00    -0.060 C 
ATOM     28  C   UNL     1      39.344 -21.590 -32.661  0.00  0.00    -0.048 C 
ATOM     29  C   UNL     1      40.799 -21.955 -32.829  0.00  0.00    -0.052 C 
ATOM     30  C   UNL     1      41.322 -21.488 -34.192  0.00  0.00    -0.047 C 
ATOM     31  C   UNL     1      40.196 -21.856 -35.580  0.00  0.00    -0.022 C 
ATOM     32  C   UNL     1      40.889 -22.493 -35.916  0.00  0.00    -0.059 C 
BRANCH  21  33
ATOM     33  C   UNL     1      39.593 -19.138 -38.825  0.00  0.00    +0.066 C 
BRANCH  33  34
ATOM     34  O   UNL     1      38.248 -19.318 -39.250  0.00  0.00    -0.391 OA
ATOM     35  H   UNL     1      37.679 -18.673 -38.803  0.00  0.00    +0.000 HD
ENDBRANCH  33  34
ENDBRANCH  21  33
ENDBRANCH  19  20
ENDBRANCH   1  19
TORSDOF 14
ENDMDL
MODEL 15
REMARK VINA RESULT:    -6.342     17.222     21.083
REMARK INTER + INTRA:         -12.524
REMARK INTER:                  -9.429
REMARK INTRA:                  -3.095
REMARK UNBOUND:                -1.176
REMARK  Name = cpd295.pdb
REMARK  18 active torsions:
REMARK  status: ('A' for Active; 'I' for Inactive)
REMARK    1  A    between atoms: C_1  and  C_2
REMARK    2  A    between atoms: C_2  and  C_3
REMARK    3  A    between atoms: C_2  and  C_20
REMARK    4  A    between atoms: C_3  and  C_4
REMARK    5  A    between atoms: C_4  and  C_5
REMARK    6  A    between atoms: C_6  and  C_7
REMARK    7  A    between atoms: C_7  and  O_8
REMARK    8  A    between atoms: C_12  and  C_13
REMARK    9  A    between atoms: C_12  and  C_14
REMARK   10  A    between atoms: C_18  and  C_19
REMARK   11  A    between atoms: C_20  and  C_21
REMARK   12  A    between atoms: C_21  and  O_23
REMARK   13  A    between atoms: O_23  and  C_24
REMARK   14  A    between atoms: C_24  and  C_25
REMARK   15  A    between atoms: C_25  and  C_26
REMARK   16  A    between atoms: C_26  and  C_27
REMARK   17  A    between atoms: C_27  and  C_28
REMARK   18  A    between atoms: C_28  and  N_29
REMARK                            x       y       z     vdW  Elec       q    Type
REMARK                         _______ _______ _______ _____ _____    ______ ____
ROOT
ATOM      1  C   UNL     1      41.811 -19.092 -35.662  0.00  0.00    -0.049 C 
ENDROOT
BRANCH   1   3
ATOM      2  C   UNL     1      42.694 -16.702 -35.486  0.00  0.00    -0.062 C 
ATOM      3  C   UNL     1      42.099 -17.769 -36.406  0.00  0.00    -0.034 C 
BRANCH   3   4
ATOM      4  C   UNL     1      40.820 -17.215 -37.075  0.00  0.00    +0.048 C 
BRANCH   4   5
ATOM      5  C   UNL     1      40.761 -17.511 -38.559  0.00  0.00    +0.307 C 
ATOM      6  O   UNL     1      41.609 -17.168 -39.371  0.00  0.00    -0.251 OA
BRANCH   5   7
ATOM      7  O   UNL     1      39.695 -18.316 -38.821  0.00  0.00    -0.465 OA
BRANCH   7   8
ATOM      8  C   UNL     1      40.012 -19.673 -39.164  0.00  0.00    +0.092 C 
BRANCH   8   9
ATOM      9  C   UNL     1      39.561 -20.549 -38.000  0.00  0.00    -0.018 C 
BRANCH   9  10
ATOM     10  C   UNL     1      40.237 -21.921 -37.994  0.00  0.00    -0.049 C 
BRANCH  10  11
ATOM     11  C   UNL     1      39.478 -22.910 -37.100  0.00  0.00    -0.040 C 
BRANCH  11  12
ATOM     12  C   UNL     1      40.123 -23.027 -35.711  0.00  0.00    -0.001 C 
BRANCH  12  13
ATOM     13  N   UNL     1      39.796 -21.884 -34.854  0.00  0.00    -0.302 N 
ATOM     14  C   UNL     1      38.379 -21.859 -34.467  0.00  0.00    -0.001 C 
ATOM     15  C   UNL     1      38.340 -21.029 -33.189  0.00  0.00    -0.039 C 
ATOM     16  C   UNL     1      39.789 -20.914 -32.739  0.00  0.00    -0.039 C 
ATOM     17  C   UNL     1      40.531 -21.930 -33.587  0.00  0.00    -0.001 C 
ATOM     18  H   UNL     1      40.042 -21.067 -35.413  0.00  0.00    +0.000 HD
ENDBRANCH  12  13
ENDBRANCH  11  12
ENDBRANCH  10  11
ENDBRANCH   9  10
ENDBRANCH   8   9
ENDBRANCH   7   8
ENDBRANCH   5   7
ENDBRANCH   4   5
ENDBRANCH   3   4
ENDBRANCH   1   3
BRANCH   1  19
ATOM     19  C   UNL     1      42.849 -20.220 -35.822  0.00  0.00    -0.046 C 
BRANCH  19  20
ATOM     20  C   UNL     1      44.227 -19.854 -36.569  0.00  0.00    -0.012 C 
ATOM     21  C   UNL     1      45.395 -20.029 -35.558  0.00  0.00    -0.045 C 
ATOM     22  C   UNL     1      46.598 -19.748 -36.066  0.00  0.00    -0.082 C 
ATOM     23  C   UNL     1      46.641 -19.536 -37.532  0.00  0.00    -0.031 C 
ATOM     24  C   UNL     1      45.550 -20.485 -38.236  0.00  0.00    -0.027 C 
ATOM     25  C   UNL     1      46.319 -21.110 -39.598  0.00  0.00    -0.031 C 
ATOM     26  C   UNL     1      45.476 -22.231 -40.279  0.00  0.00    -0.060 C 
ATOM     27  C   UNL     1      47.683 -21.787 -39.284  0.00  0.00    -0.060 C 
ATOM     28  C   UNL     1      46.557 -19.963 -40.590  0.00  0.00    -0.048 C 
ATOM     29  C   UNL     1      45.287 -19.156 -40.729  0.00  0.00    -0.052 C 
ATOM     30  C   UNL     1      44.624 -18.950 -39.363  0.00  0.00    -0.047 C 
ATOM     31  C   UNL     1      44.556 -20.458 -38.340  0.00  0.00    -0.022 C 
ATOM     32  C   UNL     1      43.561 -20.431 -38.444  0.00  0.00    -0.059 C 
BRANCH  21  33
ATOM     33  C   UNL     1      45.179 -20.389 -34.110  0.00  0.00    +0.066 C 
BRANCH  33  34
ATOM     34  O   UNL     1      45.974 -21.501 -33.718  0.00  0.00    -0.391 OA
ATOM     35  H   UNL     1      46.688 -21.631 -34.361  0.00  0.00    +0.000 HD
ENDBRANCH  33  34
ENDBRANCH  21  33
ENDBRANCH  19  20
ENDBRANCH   1  19
TORSDOF 14
ENDMDL
MODEL 16
REMARK VINA RESULT:    -6.332     17.307     21.091
REMARK INTER + INTRA:         -12.505
REMARK INTER:                 -10.063
REMARK INTRA:                  -2.441
REMARK UNBOUND:                -1.176
REMARK  Name = cpd295.pdb
REMARK  18 active torsions:
REMARK  status: ('A' for Active; 'I' for Inactive)
REMARK    1  A    between atoms: C_1  and  C_2
REMARK    2  A    between atoms: C_2  and  C_3
REMARK    3  A    between atoms: C_2  and  C_20
REMARK    4  A    between atoms: C_3  and  C_4
REMARK    5  A    between atoms: C_4  and  C_5
REMARK    6  A    between atoms: C_6  and  C_7
REMARK    7  A    between atoms: C_7  and  O_8
REMARK    8  A    between atoms: C_12  and  C_13
REMARK    9  A    between atoms: C_12  and  C_14
REMARK   10  A    between atoms: C_18  and  C_19
REMARK   11  A    between atoms: C_20  and  C_21
REMARK   12  A    between atoms: C_21  and  O_23
REMARK   13  A    between atoms: O_23  and  C_24
REMARK   14  A    between atoms: C_24  and  C_25
REMARK   15  A    between atoms: C_25  and  C_26
REMARK   16  A    between atoms: C_26  and  C_27
REMARK   17  A    between atoms: C_27  and  C_28
REMARK   18  A    between atoms: C_28  and  N_29
REMARK                            x       y       z     vdW  Elec       q    Type
REMARK                         _______ _______ _______ _____ _____    ______ ____
ROOT
ATOM      1  C   UNL     1      41.417 -19.824 -37.141  0.00  0.00    -0.049 C 
ENDROOT
BRANCH   1   3
ATOM      2  C   UNL     1      39.279 -18.913 -38.200  0.00  0.00    -0.062 C 
ATOM      3  C   UNL     1      40.512 -19.798 -38.392  0.00  0.00    -0.034 C 
BRANCH   3   4
ATOM      4  C   UNL     1      40.064 -21.224 -38.787  0.00  0.00    +0.048 C 
BRANCH   4   5
ATOM      5  C   UNL     1      40.218 -22.219 -37.658  0.00  0.00    +0.307 C 
ATOM      6  O   UNL     1      41.174 -22.968 -37.515  0.00  0.00    -0.251 OA
BRANCH   5   7
ATOM      7  O   UNL     1      39.198 -22.062 -36.769  0.00  0.00    -0.465 OA
BRANCH   7   8
ATOM      8  C   UNL     1      39.229 -22.931 -35.628  0.00  0.00    +0.092 C 
BRANCH   8   9
ATOM      9  C   UNL     1      38.669 -22.145 -34.448  0.00  0.00    -0.018 C 
BRANCH   9  10
ATOM     10  C   UNL     1      39.144 -20.691 -34.426  0.00  0.00    -0.049 C 
BRANCH  10  11
ATOM     11  C   UNL     1      40.046 -20.419 -33.216  0.00  0.00    -0.040 C 
BRANCH  11  12
ATOM     12  C   UNL     1      41.360 -21.210 -33.299  0.00  0.00    -0.001 C 
BRANCH  12  13
ATOM     13  N   UNL     1      42.520 -20.385 -32.953  0.00  0.00    -0.302 N 
ATOM     14  C   UNL     1      43.529 -20.358 -34.020  0.00  0.00    -0.001 C 
ATOM     15  C   UNL     1      44.318 -19.076 -33.776  0.00  0.00    -0.039 C 
ATOM     16  C   UNL     1      43.490 -18.277 -32.781  0.00  0.00    -0.039 C 
ATOM     17  C   UNL     1      42.147 -18.983 -32.751  0.00  0.00    -0.001 C 
ATOM     18  H   UNL     1      42.891 -20.810 -32.103  0.00  0.00    +0.000 HD
ENDBRANCH  12  13
ENDBRANCH  11  12
ENDBRANCH  10  11
ENDBRANCH   9  10
ENDBRANCH   8   9
ENDBRANCH   7   8
ENDBRANCH   5   7
ENDBRANCH   4   5
ENDBRANCH   3   4
ENDBRANCH   1   3
BRANCH   1  19
ATOM     19  C   UNL     1      42.935 -19.700 -37.378  0.00  0.00    -0.046 C 
BRANCH  19  20
ATOM     20  C   UNL     1      43.424 -19.384 -38.879  0.00  0.00    -0.012 C 
ATOM     21  C   UNL     1      44.051 -17.961 -38.902  0.00  0.00    -0.045 C 
ATOM     22  C   UNL     1      44.493 -17.583 -40.104  0.00  0.00    -0.082 C 
ATOM     23  C   UNL     1      44.513 -18.641 -41.141  0.00  0.00    -0.031 C 
ATOM     24  C   UNL     1      44.843 -20.055 -40.449  0.00  0.00    -0.027 C 
ATOM     25  C   UNL     1      45.934 -20.812 -41.485  0.00  0.00    -0.031 C 
ATOM     26  C   UNL     1      46.534 -22.105 -40.853  0.00  0.00    -0.060 C 
ATOM     27  C   UNL     1      47.172 -19.937 -41.828  0.00  0.00    -0.060 C 
ATOM     28  C   UNL     1      45.202 -21.161 -42.789  0.00  0.00    -0.048 C 
ATOM     29  C   UNL     1      43.882 -21.814 -42.457  0.00  0.00    -0.052 C 
ATOM     30  C   UNL     1      43.199 -21.094 -41.289  0.00  0.00    -0.047 C 
ATOM     31  C   UNL     1      44.321 -20.710 -39.902  0.00  0.00    -0.022 C 
ATOM     32  C   UNL     1      43.799 -21.364 -39.356  0.00  0.00    -0.059 C 
BRANCH  21  33
ATOM     33  C   UNL     1      44.070 -17.054 -37.697  0.00  0.00    +0.066 C 
BRANCH  33  34
ATOM     34  O   UNL     1      45.324 -17.094 -37.026  0.00  0.00    -0.391 OA
ATOM     35  H   UNL     1      45.851 -16.322 -37.283  0.00  0.00    +0.000 HD
ENDBRANCH  33  34
ENDBRANCH  21  33
ENDBRANCH  19  20
ENDBRANCH   1  19
TORSDOF 14
ENDMDL
MODEL 17
REMARK VINA RESULT:    -6.330     16.843     20.768
REMARK INTER + INTRA:         -12.503
REMARK INTER:                  -9.408
REMARK INTRA:                  -3.095
REMARK UNBOUND:                -1.176
REMARK  Name = cpd295.pdb
REMARK  18 active torsions:
REMARK  status: ('A' for Active; 'I' for Inactive)
REMARK    1  A    between atoms: C_1  and  C_2
REMARK    2  A    between atoms: C_2  and  C_3
REMARK    3  A    between atoms: C_2  and  C_20
REMARK    4  A    between atoms: C_3  and  C_4
REMARK    5  A    between atoms: C_4  and  C_5
REMARK    6  A    between atoms: C_6  and  C_7
REMARK    7  A    between atoms: C_7  and  O_8
REMARK    8  A    between atoms: C_12  and  C_13
REMARK    9  A    between atoms: C_12  and  C_14
REMARK   10  A    between atoms: C_18  and  C_19
REMARK   11  A    between atoms: C_20  and  C_21
REMARK   12  A    between atoms: C_21  and  O_23
REMARK   13  A    between atoms: O_23  and  C_24
REMARK   14  A    between atoms: C_24  and  C_25
REMARK   15  A    between atoms: C_25  and  C_26
REMARK   16  A    between atoms: C_26  and  C_27
REMARK   17  A    between atoms: C_27  and  C_28
REMARK   18  A    between atoms: C_28  and  N_29
REMARK                            x       y       z     vdW  Elec       q    Type
REMARK                         _______ _______ _______ _____ _____    ______ ____
ROOT
ATOM      1  C   UNL     1      40.899 -20.191 -38.638  0.00  0.00    -0.049 C 
ENDROOT
BRANCH   1   3
ATOM      2  C   UNL     1      41.077 -22.722 -38.930  0.00  0.00    -0.062 C 
ATOM      3  C   UNL     1      40.814 -21.574 -37.954  0.00  0.00    -0.034 C 
BRANCH   3   4
ATOM      4  C   UNL     1      39.439 -21.779 -37.278  0.00  0.00    +0.048 C 
BRANCH   4   5
ATOM      5  C   UNL     1      39.472 -22.834 -36.193  0.00  0.00    +0.307 C 
ATOM      6  O   UNL     1      39.145 -24.002 -36.348  0.00  0.00    -0.251 OA
BRANCH   5   7
ATOM      7  O   UNL     1      40.037 -22.314 -35.069  0.00  0.00    -0.465 OA
BRANCH   7   8
ATOM      8  C   UNL     1      39.852 -23.080 -33.869  0.00  0.00    +0.092 C 
BRANCH   8   9
ATOM      9  C   UNL     1      40.746 -22.463 -32.799  0.00  0.00    -0.018 C 
BRANCH   9  10
ATOM     10  C   UNL     1      41.599 -21.311 -33.332  0.00  0.00    -0.049 C 
BRANCH  10  11
ATOM     11  C   UNL     1      41.408 -20.043 -32.489  0.00  0.00    -0.040 C 
BRANCH  11  12
ATOM     12  C   UNL     1      40.027 -19.412 -32.720  0.00  0.00    -0.001 C 
BRANCH  12  13
ATOM     13  N   UNL     1      39.673 -19.367 -34.141  0.00  0.00    -0.302 N 
ATOM     14  C   UNL     1      38.221 -19.393 -34.360  0.00  0.00    -0.001 C 
ATOM     15  C   UNL     1      38.026 -18.772 -35.739  0.00  0.00    -0.039 C 
ATOM     16  C   UNL     1      39.357 -18.119 -36.079  0.00  0.00    -0.039 C 
ATOM     17  C   UNL     1      40.128 -18.125 -34.772  0.00  0.00    -0.001 C 
ATOM     18  H   UNL     1      40.124 -20.190 -34.542  0.00  0.00    +0.000 HD
ENDBRANCH  12  13
ENDBRANCH  11  12
ENDBRANCH  10  11
ENDBRANCH   9  10
ENDBRANCH   8   9
ENDBRANCH   7   8
ENDBRANCH   5   7
ENDBRANCH   4   5
ENDBRANCH   3   4
ENDBRANCH   1   3
BRANCH   1  19
ATOM     19  C   UNL     1      42.264 -19.791 -39.231  0.00  0.00    -0.046 C 
BRANCH  19  20
ATOM     20  C   UNL     1      43.572 -20.093 -38.342  0.00  0.00    -0.012 C 
ATOM     21  C   UNL     1      44.667 -20.694 -39.267  0.00  0.00    -0.045 C 
ATOM     22  C   UNL     1      45.806 -20.991 -38.636  0.00  0.00    -0.082 C 
ATOM     23  C   UNL     1      45.911 -20.504 -37.241  0.00  0.00    -0.031 C 
ATOM     24  C   UNL     1      45.130 -19.105 -37.108  0.00  0.00    -0.027 C 
ATOM     25  C   UNL     1      46.126 -18.129 -36.163  0.00  0.00    -0.031 C 
ATOM     26  C   UNL     1      45.624 -16.653 -36.121  0.00  0.00    -0.060 C 
ATOM     27  C   UNL     1      47.583 -18.027 -36.698  0.00  0.00    -0.060 C 
ATOM     28  C   UNL     1      46.164 -18.707 -34.741  0.00  0.00    -0.048 C 
ATOM     29  C   UNL     1      44.756 -19.022 -34.296  0.00  0.00    -0.052 C 
ATOM     30  C   UNL     1      43.959 -19.669 -35.435  0.00  0.00    -0.047 C 
ATOM     31  C   UNL     1      44.168 -18.839 -37.046  0.00  0.00    -0.022 C 
ATOM     32  C   UNL     1      43.206 -18.573 -36.983  0.00  0.00    -0.059 C 
BRANCH  21  33
ATOM     33  C   UNL     1      44.430 -21.004 -40.724  0.00  0.00    +0.066 C 
BRANCH  33  34
ATOM     34  O   UNL     1      45.520 -21.716 -41.296  0.00  0.00    -0.391 OA
ATOM     35  H   UNL     1      45.284 -22.652 -41.385  0.00  0.00    +0.000 HD
ENDBRANCH  33  34
ENDBRANCH  21  33
ENDBRANCH  19  20
ENDBRANCH   1  19
TORSDOF 14
ENDMDL
MODEL 18
REMARK VINA RESULT:    -6.265     18.767     21.411
REMARK INTER + INTRA:         -12.386
REMARK INTER:                  -9.728
REMARK INTRA:                  -2.658
REMARK UNBOUND:                -1.176
REMARK  Name = cpd295.pdb
REMARK  18 active torsions:
REMARK  status: ('A' for Active; 'I' for Inactive)
REMARK    1  A    between atoms: C_1  and  C_2
REMARK    2  A    between atoms: C_2  and  C_3
REMARK    3  A    between atoms: C_2  and  C_20
REMARK    4  A    between atoms: C_3  and  C_4
REMARK    5  A    between atoms: C_4  and  C_5
REMARK    6  A    between atoms: C_6  and  C_7
REMARK    7  A    between atoms: C_7  and  O_8
REMARK    8  A    between atoms: C_12  and  C_13
REMARK    9  A    between atoms: C_12  and  C_14
REMARK   10  A    between atoms: C_18  and  C_19
REMARK   11  A    between atoms: C_20  and  C_21
REMARK   12  A    between atoms: C_21  and  O_23
REMARK   13  A    between atoms: O_23  and  C_24
REMARK   14  A    between atoms: C_24  and  C_25
REMARK   15  A    between atoms: C_25  and  C_26
REMARK   16  A    between atoms: C_26  and  C_27
REMARK   17  A    between atoms: C_27  and  C_28
REMARK   18  A    between atoms: C_28  and  N_29
REMARK                            x       y       z     vdW  Elec       q    Type
REMARK                         _______ _______ _______ _____ _____    ______ ____
ROOT
ATOM      1  C   UNL     1      44.865 -16.862 -36.064  0.00  0.00    -0.049 C 
ENDROOT
BRANCH   1   3
ATOM      2  C   UNL     1      46.154 -18.812 -35.037  0.00  0.00    -0.062 C 
ATOM      3  C   UNL     1      45.947 -17.943 -36.278  0.00  0.00    -0.034 C 
BRANCH   3   4
ATOM      4  C   UNL     1      47.295 -17.309 -36.692  0.00  0.00    +0.048 C 
BRANCH   4   5
ATOM      5  C   UNL     1      47.122 -16.032 -37.485  0.00  0.00    +0.307 C 
ATOM      6  O   UNL     1      47.208 -14.905 -37.019  0.00  0.00    -0.251 OA
BRANCH   5   7
ATOM      7  O   UNL     1      46.983 -16.332 -38.806  0.00  0.00    -0.465 OA
BRANCH   7   8
ATOM      8  C   UNL     1      46.053 -15.516 -39.534  0.00  0.00    +0.092 C 
BRANCH   8   9
ATOM      9  C   UNL     1      45.188 -16.455 -40.368  0.00  0.00    -0.018 C 
BRANCH   9  10
ATOM     10  C   UNL     1      45.433 -17.930 -40.045  0.00  0.00    -0.049 C 
BRANCH  10  11
ATOM     11  C   UNL     1      45.681 -18.744 -41.322  0.00  0.00    -0.040 C 
BRANCH  11  12
ATOM     12  C   UNL     1      47.120 -19.274 -41.385  0.00  0.00    -0.001 C 
BRANCH  12  13
ATOM     13  N   UNL     1      47.179 -20.727 -41.206  0.00  0.00    -0.302 N 
ATOM     14  C   UNL     1      46.029 -21.415 -41.807  0.00  0.00    -0.001 C 
ATOM     15  C   UNL     1      46.511 -22.840 -42.051  0.00  0.00    -0.039 C 
ATOM     16  C   UNL     1      48.023 -22.788 -41.883  0.00  0.00    -0.039 C 
ATOM     17  C   UNL     1      48.352 -21.307 -41.868  0.00  0.00    -0.001 C 
ATOM     18  H   UNL     1      47.204 -20.860 -40.195  0.00  0.00    +0.000 HD
ENDBRANCH  12  13
ENDBRANCH  11  12
ENDBRANCH  10  11
ENDBRANCH   9  10
ENDBRANCH   8   9
ENDBRANCH   7   8
ENDBRANCH   5   7
ENDBRANCH   4   5
ENDBRANCH   3   4
ENDBRANCH   1   3
BRANCH   1  19
ATOM     19  C   UNL     1      43.410 -17.262 -36.381  0.00  0.00    -0.046 C 
BRANCH  19  20
ATOM     20  C   UNL     1      43.091 -18.834 -36.522  0.00  0.00    -0.012 C 
ATOM     21  C   UNL     1      42.665 -19.376 -35.129  0.00  0.00    -0.045 C 
ATOM     22  C   UNL     1      42.377 -20.680 -35.120  0.00  0.00    -0.082 C 
ATOM     23  C   UNL     1      42.299 -21.328 -36.450  0.00  0.00    -0.031 C 
ATOM     24  C   UNL     1      41.727 -20.272 -37.521  0.00  0.00    -0.027 C 
ATOM     25  C   UNL     1      40.632 -21.143 -38.459  0.00  0.00    -0.031 C 
ATOM     26  C   UNL     1      39.814 -20.214 -39.408  0.00  0.00    -0.060 C 
ATOM     27  C   UNL     1      39.554 -21.889 -37.623  0.00  0.00    -0.060 C 
ATOM     28  C   UNL     1      41.413 -22.174 -39.286  0.00  0.00    -0.048 C 
ATOM     29  C   UNL     1      42.603 -21.498 -39.926  0.00  0.00    -0.052 C 
ATOM     30  C   UNL     1      43.279 -20.541 -38.937  0.00  0.00    -0.047 C 
ATOM     31  C   UNL     1      42.111 -19.490 -38.011  0.00  0.00    -0.022 C 
ATOM     32  C   UNL     1      42.494 -18.707 -38.502  0.00  0.00    -0.059 C 
BRANCH  21  33
ATOM     33  C   UNL     1      42.671 -18.528 -33.882  0.00  0.00    +0.066 C 
BRANCH  33  34
ATOM     34  O   UNL     1      43.467 -19.105 -32.854  0.00  0.00    -0.391 OA
ATOM     35  H   UNL     1      44.319 -19.383 -33.223  0.00  0.00    +0.000 HD
ENDBRANCH  33  34
ENDBRANCH  21  33
ENDBRANCH  19  20
ENDBRANCH   1  19
TORSDOF 14
ENDMDL
MODEL 19
REMARK VINA RESULT:    -6.206     19.446     23.025
REMARK INTER + INTRA:         -12.280
REMARK INTER:                  -8.835
REMARK INTRA:                  -3.445
REMARK UNBOUND:                -1.176
REMARK  Name = cpd295.pdb
REMARK  18 active torsions:
REMARK  status: ('A' for Active; 'I' for Inactive)
REMARK    1  A    between atoms: C_1  and  C_2
REMARK    2  A    between atoms: C_2  and  C_3
REMARK    3  A    between atoms: C_2  and  C_20
REMARK    4  A    between atoms: C_3  and  C_4
REMARK    5  A    between atoms: C_4  and  C_5
REMARK    6  A    between atoms: C_6  and  C_7
REMARK    7  A    between atoms: C_7  and  O_8
REMARK    8  A    between atoms: C_12  and  C_13
REMARK    9  A    between atoms: C_12  and  C_14
REMARK   10  A    between atoms: C_18  and  C_19
REMARK   11  A    between atoms: C_20  and  C_21
REMARK   12  A    between atoms: C_21  and  O_23
REMARK   13  A    between atoms: O_23  and  C_24
REMARK   14  A    between atoms: C_24  and  C_25
REMARK   15  A    between atoms: C_25  and  C_26
REMARK   16  A    between atoms: C_26  and  C_27
REMARK   17  A    between atoms: C_27  and  C_28
REMARK   18  A    between atoms: C_28  and  N_29
REMARK                            x       y       z     vdW  Elec       q    Type
REMARK                         _______ _______ _______ _____ _____    ______ ____
ROOT
ATOM      1  C   UNL     1      46.101 -20.979 -38.770  0.00  0.00    -0.049 C 
ENDROOT
BRANCH   1   3
ATOM      2  C   UNL     1      46.580 -21.388 -41.244  0.00  0.00    -0.062 C 
ATOM      3  C   UNL     1      45.510 -21.326 -40.153  0.00  0.00    -0.034 C 
BRANCH   3   4
ATOM      4  C   UNL     1      44.417 -20.312 -40.564  0.00  0.00    +0.048 C 
BRANCH   4   5
ATOM      5  C   UNL     1      43.039 -20.935 -40.639  0.00  0.00    +0.307 C 
ATOM      6  O   UNL     1      42.678 -21.725 -41.499  0.00  0.00    -0.251 OA
BRANCH   5   7
ATOM      7  O   UNL     1      42.318 -20.579 -39.540  0.00  0.00    -0.465 OA
BRANCH   7   8
ATOM      8  C   UNL     1      42.599 -19.275 -39.008  0.00  0.00    +0.092 C 
BRANCH   8   9
ATOM      9  C   UNL     1      42.889 -19.448 -37.522  0.00  0.00    -0.018 C 
BRANCH   9  10
ATOM     10  C   UNL     1      43.537 -18.212 -36.896  0.00  0.00    -0.049 C 
BRANCH  10  11
ATOM     11  C   UNL     1      43.832 -18.432 -35.407  0.00  0.00    -0.040 C 
BRANCH  11  12
ATOM     12  C   UNL     1      42.736 -17.828 -34.517  0.00  0.00    -0.001 C 
BRANCH  12  13
ATOM     13  N   UNL     1      41.990 -18.857 -33.788  0.00  0.00    -0.302 N 
ATOM     14  C   UNL     1      40.728 -19.211 -34.449  0.00  0.00    -0.001 C 
ATOM     15  C   UNL     1      40.399 -20.609 -33.937  0.00  0.00    -0.039 C 
ATOM     16  C   UNL     1      41.676 -21.104 -33.272  0.00  0.00    -0.039 C 
ATOM     17  C   UNL     1      42.739 -20.114 -33.708  0.00  0.00    -0.001 C 
ATOM     18  H   UNL     1      41.825 -18.449 -32.868  0.00  0.00    +0.000 HD
ENDBRANCH  12  13
ENDBRANCH  11  12
ENDBRANCH  10  11
ENDBRANCH   9  10
ENDBRANCH   8   9
ENDBRANCH   7   8
ENDBRANCH   5   7
ENDBRANCH   4   5
ENDBRANCH   3   4
ENDBRANCH   1   3
BRANCH   1  19
ATOM     19  C   UNL     1      47.234 -19.935 -38.740  0.00  0.00    -0.046 C 
BRANCH  19  20
ATOM     20  C   UNL     1      46.839 -18.428 -38.332  0.00  0.00    -0.012 C 
ATOM     21  C   UNL     1      47.327 -18.168 -36.879  0.00  0.00    -0.045 C 
ATOM     22  C   UNL     1      47.050 -16.943 -36.425  0.00  0.00    -0.082 C 
ATOM     23  C   UNL     1      46.534 -15.988 -37.433  0.00  0.00    -0.031 C 
ATOM     24  C   UNL     1      47.211 -16.304 -38.857  0.00  0.00    -0.027 C 
ATOM     25  C   UNL     1      47.594 -14.799 -39.509  0.00  0.00    -0.031 C 
ATOM     26  C   UNL     1      48.466 -14.927 -40.796  0.00  0.00    -0.060 C 
ATOM     27  C   UNL     1      48.439 -13.907 -38.556  0.00  0.00    -0.060 C 
ATOM     28  C   UNL     1      46.286 -14.065 -39.838  0.00  0.00    -0.048 C 
ATOM     29  C   UNL     1      45.361 -15.006 -40.573  0.00  0.00    -0.052 C 
ATOM     30  C   UNL     1      45.395 -16.403 -39.942  0.00  0.00    -0.047 C 
ATOM     31  C   UNL     1      47.076 -17.001 -39.562  0.00  0.00    -0.022 C 
ATOM     32  C   UNL     1      46.940 -17.697 -40.267  0.00  0.00    -0.059 C 
BRANCH  21  33
ATOM     33  C   UNL     1      47.969 -19.234 -36.027  0.00  0.00    +0.066 C 
BRANCH  33  34
ATOM     34  O   UNL     1      47.023 -19.869 -35.175  0.00  0.00    -0.391 OA
ATOM     35  H   UNL     1      47.473 -20.537 -34.635  0.00  0.00    +0.000 HD
ENDBRANCH  33  34
ENDBRANCH  21  33
ENDBRANCH  19  20
ENDBRANCH   1  19
TORSDOF 14
ENDMDL
MODEL 20
REMARK VINA RESULT:    -6.077     17.875     21.537
REMARK INTER + INTRA:         -12.050
REMARK INTER:                  -8.705
REMARK INTRA:                  -3.345
REMARK UNBOUND:                -1.176
REMARK  Name = cpd295.pdb
REMARK  18 active torsions:
REMARK  status: ('A' for Active; 'I' for Inactive)
REMARK    1  A    between atoms: C_1  and  C_2
REMARK    2  A    between atoms: C_2  and  C_3
REMARK    3  A    between atoms: C_2  and  C_20
REMARK    4  A    between atoms: C_3  and  C_4
REMARK    5  A    between atoms: C_4  and  C_5
REMARK    6  A    between atoms: C_6  and  C_7
REMARK    7  A    between atoms: C_7  and  O_8
REMARK    8  A    between atoms: C_12  and  C_13
REMARK    9  A    between atoms: C_12  and  C_14
REMARK   10  A    between atoms: C_18  and  C_19
REMARK   11  A    between atoms: C_20  and  C_21
REMARK   12  A    between atoms: C_21  and  O_23
REMARK   13  A    between atoms: O_23  and  C_24
REMARK   14  A    between atoms: C_24  and  C_25
REMARK   15  A    between atoms: C_25  and  C_26
REMARK   16  A    between atoms: C_26  and  C_27
REMARK   17  A    between atoms: C_27  and  C_28
REMARK   18  A    between atoms: C_28  and  N_29
REMARK                            x       y       z     vdW  Elec       q    Type
REMARK                         _______ _______ _______ _____ _____    ______ ____
ROOT
ATOM      1  C   UNL     1      40.394 -19.803 -37.695  0.00  0.00    -0.049 C 
ENDROOT
BRANCH   1   3
ATOM      2  C   UNL     1      40.949 -21.844 -39.126  0.00  0.00    -0.062 C 
ATOM      3  C   UNL     1      40.543 -21.340 -37.740  0.00  0.00    -0.034 C 
BRANCH   3   4
ATOM      4  C   UNL     1      39.237 -22.041 -37.301  0.00  0.00    +0.048 C 
BRANCH   4   5
ATOM      5  C   UNL     1      39.438 -22.963 -36.118  0.00  0.00    +0.307 C 
ATOM      6  O   UNL     1      39.035 -24.116 -36.057  0.00  0.00    -0.251 OA
BRANCH   5   7
ATOM      7  O   UNL     1      40.236 -22.355 -35.197  0.00  0.00    -0.465 OA
BRANCH   7   8
ATOM      8  C   UNL     1      40.293 -22.988 -33.910  0.00  0.00    +0.092 C 
BRANCH   8   9
ATOM      9  C   UNL     1      40.972 -22.010 -32.957  0.00  0.00    -0.018 C 
BRANCH   9  10
ATOM     10  C   UNL     1      40.974 -20.574 -33.484  0.00  0.00    -0.049 C 
BRANCH  10  11
ATOM     11  C   UNL     1      42.307 -19.876 -33.186  0.00  0.00    -0.040 C 
BRANCH  11  12
ATOM     12  C   UNL     1      42.195 -18.352 -33.341  0.00  0.00    -0.001 C 
BRANCH  12  13
ATOM     13  N   UNL     1      43.432 -17.759 -33.856  0.00  0.00    -0.302 N 
ATOM     14  C   UNL     1      44.397 -18.772 -34.303  0.00  0.00    -0.001 C 
ATOM     15  C   UNL     1      45.297 -18.041 -35.293  0.00  0.00    -0.039 C 
ATOM     16  C   UNL     1      44.577 -16.737 -35.604  0.00  0.00    -0.039 C 
ATOM     17  C   UNL     1      43.184 -16.928 -35.036  0.00  0.00    -0.001 C 
ATOM     18  H   UNL     1      43.800 -17.216 -33.074  0.00  0.00    +0.000 HD
ENDBRANCH  12  13
ENDBRANCH  11  12
ENDBRANCH  10  11
ENDBRANCH   9  10
ENDBRANCH   8   9
ENDBRANCH   7   8
ENDBRANCH   5   7
ENDBRANCH   4   5
ENDBRANCH   3   4
ENDBRANCH   1   3
BRANCH   1  19
ATOM     19  C   UNL     1      41.666 -18.990 -37.388  0.00  0.00    -0.046 C 
BRANCH  19  20
ATOM     20  C   UNL     1      42.633 -18.637 -38.626  0.00  0.00    -0.012 C 
ATOM     21  C   UNL     1      42.452 -17.133 -38.978  0.00  0.00    -0.045 C 
ATOM     22  C   UNL     1      43.205 -16.722 -40.001  0.00  0.00    -0.082 C 
ATOM     23  C   UNL     1      44.226 -17.686 -40.473  0.00  0.00    -0.031 C 
ATOM     24  C   UNL     1      44.769 -18.538 -39.222  0.00  0.00    -0.027 C 
ATOM     25  C   UNL     1      46.436 -18.634 -39.441  0.00  0.00    -0.031 C 
ATOM     26  C   UNL     1      47.153 -19.238 -38.195  0.00  0.00    -0.060 C 
ATOM     27  C   UNL     1      47.115 -17.250 -39.646  0.00  0.00    -0.060 C 
ATOM     28  C   UNL     1      46.715 -19.505 -40.674  0.00  0.00    -0.048 C 
ATOM     29  C   UNL     1      45.879 -20.761 -40.593  0.00  0.00    -0.052 C 
ATOM     30  C   UNL     1      44.462 -20.439 -40.106  0.00  0.00    -0.047 C 
ATOM     31  C   UNL     1      44.412 -19.300 -38.681  0.00  0.00    -0.022 C 
ATOM     32  C   UNL     1      44.055 -20.062 -38.141  0.00  0.00    -0.059 C 
BRANCH  21  33
ATOM     33  C   UNL     1      41.445 -16.246 -38.290  0.00  0.00    +0.066 C 
BRANCH  33  34
ATOM     34  O   UNL     1      42.026 -15.020 -37.865  0.00  0.00    -0.391 OA
ATOM     35  H   UNL     1      42.148 -14.437 -38.631  0.00  0.00    +0.000 HD
ENDBRANCH  33  34
ENDBRANCH  21  33
ENDBRANCH  19  20
ENDBRANCH   1  19
TORSDOF 14
ENDMDL
