@<TRIPOS>MOLECULE
*****
 33 35 0 0 0
SMALL
GASTEIGER

@<TRIPOS>ATOM
      1 C          -5.1391    3.9122    0.0000 C.3     1  UNL1        0.0006
      2 C          -5.1391    2.9122    0.0000 C.3     1  UNL1        0.0111
      3 C          -6.0052    2.4122    0.0000 C.3     1  UNL1        0.0009
      4 C          -6.8712    2.9122    0.0000 C.3     1  UNL1        0.0041
      5 C          -7.7372    2.4122    0.0000 C.3     1  UNL1        0.0205
      6 C          -8.6032    2.9122    0.0000 C.2     1  UNL1       -0.0162
      7 C          -8.6032    3.9122    0.0000 C.3     1  UNL1        0.2041
      8 O          -9.4693    4.4122    0.0000 O.3     1  UNL1       -0.2155
      9 C          -9.4693    2.4122    0.0000 C.2     1  UNL1       -0.0321
     10 C          -9.4693    1.4122    0.0000 C.3     1  UNL1        0.0255
     11 C          -8.6032    0.9122    0.0000 C.3     1  UNL1        0.0046
     12 C          -8.6032   -0.0878    0.0000 C.3     1  UNL1        0.0003
     13 C          -9.1032   -0.9538    0.0000 C.3     1  UNL1        0.0000
     14 C          -9.6032   -0.0878    0.0000 C.3     1  UNL1        0.0000
     15 C          -7.7372   -0.5878    0.0000 C.3     1  UNL1        0.0000
     16 C          -6.8712   -0.0878    0.0000 C.3     1  UNL1        0.0000
     17 C          -6.8712    0.9122    0.0000 C.3     1  UNL1        0.0003
     18 C          -7.7372    1.4122    0.0000 C.3     1  UNL1        0.0038
     19 C          -6.8712    1.9122    0.0000 C.3     1  UNL1        0.0003
     20 C          -4.2731    2.4122    0.0000 C.3     1  UNL1        0.1096
     21 C          -4.2731    1.4122    0.0000 C.2     1  UNL1        0.3170
     22 O          -5.1391    0.9122    0.0000 O.2     1  UNL1       -0.2501
     23 O          -3.4071    0.9122    0.0000 O.3     1  UNL1       -0.4485
     24 C          -3.4071   -0.0878    0.0000 C.3     1  UNL1        0.2084
     25 C          -2.5411   -0.5878    0.0000 C.3     1  UNL1        0.0475
     26 C          -2.5411   -1.5878    0.0000 C.3     1  UNL1        0.0053
     27 C          -1.6750   -2.0878    0.0000 C.3     1  UNL1        0.0174
     28 C          -0.8090   -1.5878    0.0000 C.3     1  UNL1        0.0721
     29 N          -0.8090   -0.5878    0.0000 N.3     1  UNL1       -0.2727
     30 C          -1.6180    0.0000    0.0000 C.3     1  UNL1        0.0721
     31 C          -1.3090    0.9511    0.0000 C.3     1  UNL1        0.0188
     32 C          -0.3090    0.9511    0.0000 C.3     1  UNL1        0.0188
     33 C           0.0000    0.0000    0.0000 C.3     1  UNL1        0.0721
@<TRIPOS>BOND
     1     1     2    1
     2     2     3    1
     3     3     4    1
     4     4     5    1
     5     5     6    1
     6     6     7    1
     7     7     8    1
     8     6     9    2
     9     9    10    1
    10    10    11    1
    11    11    12    1
    12    12    13    1
    13    12    14    1
    14    12    15    1
    15    15    16    1
    16    16    17    1
    17    17    18    1
    18     5    18    1
    19    11    18    1
    20    18    19    1
    21     2    20    1
    22    20    21    1
    23    21    22    2
    24    21    23    1
    25    23    24    1
    26    24    25    1
    27    25    26    1
    28    26    27    1
    29    27    28    1
    30    28    29    1
    31    29    30    1
    32    30    31    1
    33    31    32    1
    34    32    33    1
    35    29    33    1
