REMARK  Name = cpd295.pdb
REMARK  18 active torsions:
REMARK  status: ('A' for Active; 'I' for Inactive)
REMARK    1  A    between atoms: C_1  and  C_2
REMARK    2  A    between atoms: C_2  and  C_3
REMARK    3  A    between atoms: C_2  and  C_20
REMARK    4  A    between atoms: C_3  and  C_4
REMARK    5  A    between atoms: C_4  and  C_5
REMARK    6  A    between atoms: C_6  and  C_7
REMARK    7  A    between atoms: C_7  and  O_8
REMARK    8  A    between atoms: C_12  and  C_13
REMARK    9  A    between atoms: C_12  and  C_14
REMARK   10  A    between atoms: C_18  and  C_19
REMARK   11  A    between atoms: C_20  and  C_21
REMARK   12  A    between atoms: C_21  and  O_23
REMARK   13  A    between atoms: O_23  and  C_24
REMARK   14  A    between atoms: C_24  and  C_25
REMARK   15  A    between atoms: C_25  and  C_26
REMARK   16  A    between atoms: C_26  and  C_27
REMARK   17  A    between atoms: C_27  and  C_28
REMARK   18  A    between atoms: C_28  and  N_29
REMARK                            x       y       z     vdW  Elec       q    Type
REMARK                         _______ _______ _______ _____ _____    ______ ____
ROOT
ATOM      1  C   UNL     1      -6.289   4.519   1.321  0.00  0.00    -0.049 C 
ENDROOT
BRANCH   1   3
ATOM      2  C   UNL     1      -6.288   7.032   0.869  0.00  0.00    -0.062 C 
ATOM      3  C   UNL     1      -5.889   5.918   1.838  0.00  0.00    -0.034 C 
BRANCH   3   4
ATOM      4  C   UNL     1      -4.370   5.998   2.115  0.00  0.00    +0.048 C 
BRANCH   4   5
ATOM      5  C   UNL     1      -3.832   4.754   2.789  0.00  0.00    +0.307 C 
ATOM      6  O   UNL     1      -4.063   4.434   3.946  0.00  0.00    -0.251 OA
BRANCH   5   7
ATOM      7  O   UNL     1      -3.164   3.995   1.877  0.00  0.00    -0.465 OA
BRANCH   7   8
ATOM      8  C   UNL     1      -2.894   2.642   2.274  0.00  0.00    +0.092 C 
BRANCH   8   9
ATOM      9  C   UNL     1      -1.978   2.037   1.216  0.00  0.00    -0.018 C 
BRANCH   9  10
ATOM     10  C   UNL     1      -1.886   0.513   1.313  0.00  0.00    -0.049 C 
BRANCH  10  11
ATOM     11  C   UNL     1      -0.794  -0.037   0.387  0.00  0.00    -0.040 C 
BRANCH  11  12
ATOM     12  C   UNL     1       0.590   0.013   1.051  0.00  0.00    -0.001 C 
BRANCH  12  13
ATOM     13  N   UNL     1       1.673  -0.152   0.078  0.00  0.00    -0.302 N 
ATOM     14  C   UNL     1       1.910   1.064  -0.711  0.00  0.00    -0.001 C 
ATOM     15  C   UNL     1       3.347   0.934  -1.203  0.00  0.00    -0.039 C 
ATOM     16  C   UNL     1       3.954  -0.193  -0.380  0.00  0.00    -0.039 C 
ATOM     17  C   UNL     1       2.953  -0.430   0.735  0.00  0.00    -0.001 C 
ATOM     18  H   UNL     1       1.369  -0.925  -0.514  0.00  0.00    +0.000 HD
ENDBRANCH  12  13
ENDBRANCH  11  12
ENDBRANCH  10  11
ENDBRANCH   9  10
ENDBRANCH   8   9
ENDBRANCH   7   8
ENDBRANCH   5   7
ENDBRANCH   4   5
ENDBRANCH   3   4
ENDBRANCH   1   3
BRANCH   1  19
ATOM     19  C   UNL     1      -7.757   4.330   0.891  0.00  0.00    -0.046 C 
BRANCH  19  20
ATOM     20  C   UNL     1      -8.388   2.857   1.047  0.00  0.00    -0.012 C 
ATOM     21  C   UNL     1      -9.934   2.992   1.142  0.00  0.00    -0.045 C 
ATOM     22  C   UNL     1     -10.572   1.827   1.279  0.00  0.00    -0.082 C 
ATOM     23  C   UNL     1      -9.739   0.615   1.099  0.00  0.00    -0.031 C 
ATOM     24  C   UNL     1      -8.603   0.912   0.000  0.00  0.00    -0.027 C 
ATOM     25  C   UNL     1      -8.544  -0.471  -0.960  0.00  0.00    -0.031 C 
ATOM     26  C   UNL     1      -7.648  -0.266  -2.220  0.00  0.00    -0.060 C 
ATOM     27  C   UNL     1      -9.928  -0.888  -1.533  0.00  0.00    -0.060 C 
ATOM     28  C   UNL     1      -7.994  -1.627  -0.113  0.00  0.00    -0.048 C 
ATOM     29  C   UNL     1      -6.766  -1.157   0.630  0.00  0.00    -0.052 C 
ATOM     30  C   UNL     1      -6.977   0.255   1.188  0.00  0.00    -0.047 C 
ATOM     31  C   UNL     1      -7.737   1.412   0.000  0.00  0.00    -0.022 C 
ATOM     32  C   UNL     1      -6.871   1.912   0.000  0.00  0.00    -0.059 C 
BRANCH  21  33
ATOM     33  C   UNL     1     -10.640   4.324   1.174  0.00  0.00    +0.066 C 
BRANCH  33  34
ATOM     34  O   UNL     1     -12.049   4.178   1.045  0.00  0.00    -0.391 OA
ATOM     35  H   UNL     1     -12.254   3.761   0.194  0.00  0.00    +0.000 HD
ENDBRANCH  33  34
ENDBRANCH  21  33
ENDBRANCH  19  20
ENDBRANCH   1  19
TORSDOF 14
