MODEL 1
REMARK VINA RESULT:    -7.973      0.000      0.000
REMARK INTER + INTRA:         -12.681
REMARK INTER:                 -11.236
REMARK INTRA:                  -1.446
REMARK UNBOUND:                -1.446
REMARK  Name = cpd235.pdb
REMARK  9 active torsions:
REMARK  status: ('A' for Active; 'I' for Inactive)
REMARK    1  A    between atoms: C_1  and  C_2
REMARK    2  A    between atoms: C_11  and  N_12
REMARK    3  A    between atoms: C_13  and  C_14
REMARK    4  A    between atoms: C_14  and  S_15
REMARK    5  A    between atoms: S_15  and  C_16
REMARK    6  A    between atoms: C_16  and  C_17
REMARK    7  A    between atoms: C_21  and  C_22
REMARK    8  A    between atoms: C_22  and  O_23
REMARK    9  A    between atoms: C_22  and  C_24
REMARK                            x       y       z     vdW  Elec       q    Type
REMARK                         _______ _______ _______ _____ _____    ______ ____
ROOT
ATOM      1  C   UNL A   1      36.990 -37.160 -29.000  0.00  0.00    +0.023 C 
ENDROOT
BRANCH   1  13
ATOM      2  C   UNL A   1      37.117 -35.278 -31.318  0.00  0.00    -0.022 C 
ATOM      3  C   UNL A   1      38.286 -36.136 -30.925  0.00  0.00    +0.045 A 
ATOM      4  N   UNL A   1      39.404 -35.946 -31.667  0.00  0.00    -0.251 NA
ATOM      5  C   UNL A   1      40.507 -36.648 -31.382  0.00  0.00    +0.076 A 
ATOM      6  C   UNL A   1      41.644 -36.402 -32.146  0.00  0.00    -0.035 A 
ATOM      7  C   UNL A   1      42.845 -37.080 -31.929  0.00  0.00    -0.057 A 
ATOM      8  C   UNL A   1      42.912 -38.032 -30.927  0.00  0.00    -0.026 A 
ATOM      9  C   UNL A   1      41.781 -38.289 -30.157  0.00  0.00    +0.134 A 
ATOM     10  F   UNL A   1      41.879 -39.240 -29.212  0.00  0.00    -0.205 F 
ATOM     11  C   UNL A   1      40.557 -37.607 -30.356  0.00  0.00    +0.056 A 
ATOM     12  C   UNL A   1      39.366 -37.835 -29.612  0.00  0.00    +0.042 A 
ATOM     13  C   UNL A   1      38.226 -37.040 -29.858  0.00  0.00    +0.005 A 
BRANCH  12  14
ATOM     14  N   UNL A   1      39.371 -38.716 -28.501  0.00  0.00    -0.357 N 
ATOM     15  H   UNL A   1      39.823 -38.453 -27.666  0.00  0.00    +0.000 HD
ATOM     16  H   UNL A   1      38.923 -39.590 -28.564  0.00  0.00    +0.000 HD
ENDBRANCH  12  14
ENDBRANCH   1  13
BRANCH   1  17
ATOM     17  S   UNL A   1      35.938 -38.552 -29.520  0.00  0.00    -0.151 S 
BRANCH  17  18
ATOM     18  C   UNL A   1      34.308 -37.777 -29.290  0.00  0.00    +0.019 C 
BRANCH  18  19
ATOM     19  C   UNL A   1      33.981 -36.832 -30.419  0.00  0.00    -0.037 A 
ATOM     20  C   UNL A   1      34.009 -37.279 -31.745  0.00  0.00    -0.058 A 
ATOM     21  C   UNL A   1      33.684 -36.415 -32.789  0.00  0.00    -0.061 A 
ATOM     22  C   UNL A   1      33.317 -35.094 -32.522  0.00  0.00    -0.056 A 
ATOM     23  C   UNL A   1      33.277 -34.616 -31.206  0.00  0.00    -0.010 A 
ATOM     24  C   UNL A   1      33.611 -35.502 -30.163  0.00  0.00    -0.052 A 
BRANCH  23  25
ATOM     25  C   UNL A   1      32.841 -33.205 -30.841  0.00  0.00    +0.175 C 
BRANCH  25  26
ATOM     26  C   UNL A   1      33.953 -32.145 -30.679  0.00  0.00    +0.420 C 
ATOM     27  F   UNL A   1      33.445 -30.899 -30.526  0.00  0.00    -0.168 F 
ATOM     28  F   UNL A   1      34.735 -32.404 -29.603  0.00  0.00    -0.168 F 
ATOM     29  F   UNL A   1      34.761 -32.112 -31.764  0.00  0.00    -0.168 F 
ENDBRANCH  25  26
BRANCH  25  30
ATOM     30  O   UNL A   1      31.865 -32.811 -31.827  0.00  0.00    -0.379 OA
ATOM     31  H   UNL A   1      31.123 -32.366 -31.388  0.00  0.00    +0.000 HD
ENDBRANCH  25  30
ENDBRANCH  23  25
ENDBRANCH  18  19
ENDBRANCH  17  18
ENDBRANCH   1  17
TORSDOF 8
ENDMDL
MODEL 2
REMARK VINA RESULT:    -7.864      3.808      5.860
REMARK INTER + INTRA:         -12.528
REMARK INTER:                 -11.122
REMARK INTRA:                  -1.406
REMARK UNBOUND:                -1.446
REMARK  Name = cpd235.pdb
REMARK  9 active torsions:
REMARK  status: ('A' for Active; 'I' for Inactive)
REMARK    1  A    between atoms: C_1  and  C_2
REMARK    2  A    between atoms: C_11  and  N_12
REMARK    3  A    between atoms: C_13  and  C_14
REMARK    4  A    between atoms: C_14  and  S_15
REMARK    5  A    between atoms: S_15  and  C_16
REMARK    6  A    between atoms: C_16  and  C_17
REMARK    7  A    between atoms: C_21  and  C_22
REMARK    8  A    between atoms: C_22  and  O_23
REMARK    9  A    between atoms: C_22  and  C_24
REMARK                            x       y       z     vdW  Elec       q    Type
REMARK                         _______ _______ _______ _____ _____    ______ ____
ROOT
ATOM      1  C   UNL A   1      35.880 -35.963 -29.860  0.00  0.00    +0.023 C 
ENDROOT
BRANCH   1  13
ATOM      2  C   UNL A   1      37.185 -37.646 -27.763  0.00  0.00    -0.022 C 
ATOM      3  C   UNL A   1      37.908 -37.226 -29.010  0.00  0.00    +0.045 A 
ATOM      4  N   UNL A   1      39.167 -37.715 -29.127  0.00  0.00    -0.251 NA
ATOM      5  C   UNL A   1      39.888 -37.418 -30.214  0.00  0.00    +0.076 A 
ATOM      6  C   UNL A   1      41.164 -37.963 -30.313  0.00  0.00    -0.035 A 
ATOM      7  C   UNL A   1      41.996 -37.715 -31.406  0.00  0.00    -0.057 A 
ATOM      8  C   UNL A   1      41.545 -36.895 -32.426  0.00  0.00    -0.026 A 
ATOM      9  C   UNL A   1      40.271 -36.340 -32.338  0.00  0.00    +0.134 A 
ATOM     10  F   UNL A   1      39.880 -35.528 -33.335  0.00  0.00    -0.205 F 
ATOM     11  C   UNL A   1      39.410 -36.587 -31.242  0.00  0.00    +0.056 A 
ATOM     12  C   UNL A   1      38.106 -36.039 -31.090  0.00  0.00    +0.042 A 
ATOM     13  C   UNL A   1      37.314 -36.416 -29.985  0.00  0.00    +0.005 A 
BRANCH  12  14
ATOM     14  N   UNL A   1      37.523 -35.274 -32.132  0.00  0.00    -0.357 N 
ATOM     15  H   UNL A   1      38.097 -34.782 -32.763  0.00  0.00    +0.000 HD
ATOM     16  H   UNL A   1      36.543 -35.234 -32.225  0.00  0.00    +0.000 HD
ENDBRANCH  12  14
ENDBRANCH   1  13
BRANCH   1  17
ATOM     17  S   UNL A   1      34.754 -37.001 -30.845  0.00  0.00    -0.151 S 
BRANCH  17  18
ATOM     18  C   UNL A   1      33.286 -36.922 -29.773  0.00  0.00    +0.019 C 
BRANCH  18  19
ATOM     19  C   UNL A   1      33.541 -37.575 -28.437  0.00  0.00    -0.037 A 
ATOM     20  C   UNL A   1      33.566 -36.806 -27.269  0.00  0.00    -0.058 A 
ATOM     21  C   UNL A   1      33.777 -37.409 -26.030  0.00  0.00    -0.061 A 
ATOM     22  C   UNL A   1      33.957 -38.790 -25.941  0.00  0.00    -0.056 A 
ATOM     23  C   UNL A   1      33.936 -39.589 -27.091  0.00  0.00    -0.010 A 
ATOM     24  C   UNL A   1      33.723 -38.963 -28.335  0.00  0.00    -0.052 A 
BRANCH  23  25
ATOM     25  C   UNL A   1      34.077 -41.103 -27.062  0.00  0.00    +0.175 C 
BRANCH  25  26
ATOM     26  C   UNL A   1      35.147 -41.729 -27.984  0.00  0.00    +0.420 C 
ATOM     27  F   UNL A   1      36.255 -40.957 -28.069  0.00  0.00    -0.168 F 
ATOM     28  F   UNL A   1      35.531 -42.951 -27.542  0.00  0.00    -0.168 F 
ATOM     29  F   UNL A   1      34.676 -41.887 -29.243  0.00  0.00    -0.168 F 
ENDBRANCH  25  26
BRANCH  25  30
ATOM     30  O   UNL A   1      34.280 -41.469 -25.681  0.00  0.00    -0.379 OA
ATOM     31  H   UNL A   1      33.421 -41.594 -25.249  0.00  0.00    +0.000 HD
ENDBRANCH  25  30
ENDBRANCH  23  25
ENDBRANCH  18  19
ENDBRANCH  17  18
ENDBRANCH   1  17
TORSDOF 8
ENDMDL
MODEL 3
REMARK VINA RESULT:    -7.856      1.799      2.943
REMARK INTER + INTRA:         -12.517
REMARK INTER:                 -11.691
REMARK INTRA:                  -0.826
REMARK UNBOUND:                -1.446
REMARK  Name = cpd235.pdb
REMARK  9 active torsions:
REMARK  status: ('A' for Active; 'I' for Inactive)
REMARK    1  A    between atoms: C_1  and  C_2
REMARK    2  A    between atoms: C_11  and  N_12
REMARK    3  A    between atoms: C_13  and  C_14
REMARK    4  A    between atoms: C_14  and  S_15
REMARK    5  A    between atoms: S_15  and  C_16
REMARK    6  A    between atoms: C_16  and  C_17
REMARK    7  A    between atoms: C_21  and  C_22
REMARK    8  A    between atoms: C_22  and  O_23
REMARK    9  A    between atoms: C_22  and  C_24
REMARK                            x       y       z     vdW  Elec       q    Type
REMARK                         _______ _______ _______ _____ _____    ______ ____
ROOT
ATOM      1  C   UNL A   1      35.912 -36.093 -29.927  0.00  0.00    +0.023 C 
ENDROOT
BRANCH   1  13
ATOM      2  C   UNL A   1      37.123 -37.773 -27.772  0.00  0.00    -0.022 C 
ATOM      3  C   UNL A   1      37.902 -37.351 -28.984  0.00  0.00    +0.045 A 
ATOM      4  N   UNL A   1      39.166 -37.836 -29.043  0.00  0.00    -0.251 NA
ATOM      5  C   UNL A   1      39.936 -37.536 -30.095  0.00  0.00    +0.076 A 
ATOM      6  C   UNL A   1      41.217 -38.077 -30.135  0.00  0.00    -0.035 A 
ATOM      7  C   UNL A   1      42.099 -37.826 -31.187  0.00  0.00    -0.057 A 
ATOM      8  C   UNL A   1      41.692 -37.007 -32.227  0.00  0.00    -0.026 A 
ATOM      9  C   UNL A   1      40.414 -36.456 -32.198  0.00  0.00    +0.134 A 
ATOM     10  F   UNL A   1      40.068 -35.645 -33.212  0.00  0.00    -0.205 F 
ATOM     11  C   UNL A   1      39.504 -36.706 -31.143  0.00  0.00    +0.056 A 
ATOM     12  C   UNL A   1      38.192 -36.162 -31.052  0.00  0.00    +0.042 A 
ATOM     13  C   UNL A   1      37.352 -36.542 -29.985  0.00  0.00    +0.005 A 
BRANCH  12  14
ATOM     14  N   UNL A   1      37.656 -35.398 -32.120  0.00  0.00    -0.357 N 
ATOM     15  H   UNL A   1      36.857 -34.842 -31.975  0.00  0.00    +0.000 HD
ATOM     16  H   UNL A   1      38.083 -35.424 -33.007  0.00  0.00    +0.000 HD
ENDBRANCH  12  14
ENDBRANCH   1  13
BRANCH   1  17
ATOM     17  S   UNL A   1      34.821 -37.192 -30.885  0.00  0.00    -0.151 S 
BRANCH  17  18
ATOM     18  C   UNL A   1      33.558 -37.516 -29.615  0.00  0.00    +0.019 C 
BRANCH  18  19
ATOM     19  C   UNL A   1      32.979 -36.233 -29.072  0.00  0.00    -0.037 A 
ATOM     20  C   UNL A   1      32.686 -36.112 -27.709  0.00  0.00    -0.058 A 
ATOM     21  C   UNL A   1      32.173 -34.920 -27.200  0.00  0.00    -0.061 A 
ATOM     22  C   UNL A   1      31.954 -33.830 -28.044  0.00  0.00    -0.056 A 
ATOM     23  C   UNL A   1      32.239 -33.917 -29.413  0.00  0.00    -0.010 A 
ATOM     24  C   UNL A   1      32.755 -35.131 -29.911  0.00  0.00    -0.052 A 
BRANCH  23  25
ATOM     25  C   UNL A   1      32.070 -32.755 -30.379  0.00  0.00    +0.175 C 
BRANCH  25  26
ATOM     26  C   UNL A   1      33.248 -31.764 -30.500  0.00  0.00    +0.420 C 
ATOM     27  F   UNL A   1      33.837 -31.823 -31.717  0.00  0.00    -0.168 F 
ATOM     28  F   UNL A   1      32.846 -30.485 -30.300  0.00  0.00    -0.168 F 
ATOM     29  F   UNL A   1      34.208 -32.029 -29.583  0.00  0.00    -0.168 F 
ENDBRANCH  25  26
BRANCH  25  30
ATOM     30  O   UNL A   1      31.723 -33.332 -31.655  0.00  0.00    -0.379 OA
ATOM     31  H   UNL A   1      32.529 -33.484 -32.172  0.00  0.00    +0.000 HD
ENDBRANCH  25  30
ENDBRANCH  23  25
ENDBRANCH  18  19
ENDBRANCH  17  18
ENDBRANCH   1  17
TORSDOF 8
ENDMDL
MODEL 4
REMARK VINA RESULT:    -7.681      1.624      2.412
REMARK INTER + INTRA:         -12.271
REMARK INTER:                 -11.106
REMARK INTRA:                  -1.165
REMARK UNBOUND:                -1.446
REMARK  Name = cpd235.pdb
REMARK  9 active torsions:
REMARK  status: ('A' for Active; 'I' for Inactive)
REMARK    1  A    between atoms: C_1  and  C_2
REMARK    2  A    between atoms: C_11  and  N_12
REMARK    3  A    between atoms: C_13  and  C_14
REMARK    4  A    between atoms: C_14  and  S_15
REMARK    5  A    between atoms: S_15  and  C_16
REMARK    6  A    between atoms: C_16  and  C_17
REMARK    7  A    between atoms: C_21  and  C_22
REMARK    8  A    between atoms: C_22  and  O_23
REMARK    9  A    between atoms: C_22  and  C_24
REMARK                            x       y       z     vdW  Elec       q    Type
REMARK                         _______ _______ _______ _____ _____    ______ ____
ROOT
ATOM      1  C   UNL A   1      35.996 -37.260 -29.547  0.00  0.00    +0.023 C 
ENDROOT
BRANCH   1  13
ATOM      2  C   UNL A   1      38.157 -38.516 -27.908  0.00  0.00    -0.022 C 
ATOM      3  C   UNL A   1      38.455 -37.751 -29.166  0.00  0.00    +0.045 A 
ATOM      4  N   UNL A   1      39.763 -37.726 -29.518  0.00  0.00    -0.251 NA
ATOM      5  C   UNL A   1      40.130 -37.088 -30.636  0.00  0.00    +0.076 A 
ATOM      6  C   UNL A   1      41.478 -37.110 -30.980  0.00  0.00    -0.035 A 
ATOM      7  C   UNL A   1      41.963 -36.476 -32.125  0.00  0.00    -0.057 A 
ATOM      8  C   UNL A   1      41.080 -35.796 -32.946  0.00  0.00    -0.026 A 
ATOM      9  C   UNL A   1      39.729 -35.763 -32.611  0.00  0.00    +0.134 A 
ATOM     10  F   UNL A   1      38.908 -35.070 -33.418  0.00  0.00    -0.205 F 
ATOM     11  C   UNL A   1      39.217 -36.407 -31.458  0.00  0.00    +0.056 A 
ATOM     12  C   UNL A   1      37.852 -36.397 -31.058  0.00  0.00    +0.042 A 
ATOM     13  C   UNL A   1      37.452 -37.136 -29.924  0.00  0.00    +0.005 A 
BRANCH  12  14
ATOM     14  N   UNL A   1      36.863 -35.814 -31.891  0.00  0.00    -0.357 N 
ATOM     15  H   UNL A   1      36.505 -36.318 -32.657  0.00  0.00    +0.000 HD
ATOM     16  H   UNL A   1      36.535 -34.905 -31.703  0.00  0.00    +0.000 HD
ENDBRANCH  12  14
ENDBRANCH   1  13
BRANCH   1  17
ATOM     17  S   UNL A   1      35.175 -38.611 -30.450  0.00  0.00    -0.151 S 
BRANCH  17  18
ATOM     18  C   UNL A   1      33.481 -37.948 -30.474  0.00  0.00    +0.019 C 
BRANCH  18  19
ATOM     19  C   UNL A   1      33.390 -36.689 -31.299  0.00  0.00    -0.037 A 
ATOM     20  C   UNL A   1      33.546 -36.744 -32.689  0.00  0.00    -0.058 A 
ATOM     21  C   UNL A   1      33.439 -35.586 -33.458  0.00  0.00    -0.061 A 
ATOM     22  C   UNL A   1      33.167 -34.359 -32.850  0.00  0.00    -0.056 A 
ATOM     23  C   UNL A   1      33.005 -34.270 -31.462  0.00  0.00    -0.010 A 
ATOM     24  C   UNL A   1      33.118 -35.450 -30.699  0.00  0.00    -0.052 A 
BRANCH  23  25
ATOM     25  C   UNL A   1      32.660 -32.977 -30.740  0.00  0.00    +0.175 C 
BRANCH  25  26
ATOM     26  C   UNL A   1      33.837 -32.059 -30.339  0.00  0.00    +0.420 C 
ATOM     27  F   UNL A   1      33.411 -30.849 -29.908  0.00  0.00    -0.168 F 
ATOM     28  F   UNL A   1      34.582 -32.609 -29.349  0.00  0.00    -0.168 F 
ATOM     29  F   UNL A   1      34.664 -31.837 -31.387  0.00  0.00    -0.168 F 
ENDBRANCH  25  26
BRANCH  25  30
ATOM     30  O   UNL A   1      31.703 -32.287 -31.570  0.00  0.00    -0.379 OA
ATOM     31  H   UNL A   1      31.216 -32.932 -32.106  0.00  0.00    +0.000 HD
ENDBRANCH  25  30
ENDBRANCH  23  25
ENDBRANCH  18  19
ENDBRANCH  17  18
ENDBRANCH   1  17
TORSDOF 8
ENDMDL
MODEL 5
REMARK VINA RESULT:    -7.524      3.465      8.305
REMARK INTER + INTRA:         -12.048
REMARK INTER:                 -11.651
REMARK INTRA:                  -0.398
REMARK UNBOUND:                -1.446
REMARK  Name = cpd235.pdb
REMARK  9 active torsions:
REMARK  status: ('A' for Active; 'I' for Inactive)
REMARK    1  A    between atoms: C_1  and  C_2
REMARK    2  A    between atoms: C_11  and  N_12
REMARK    3  A    between atoms: C_13  and  C_14
REMARK    4  A    between atoms: C_14  and  S_15
REMARK    5  A    between atoms: S_15  and  C_16
REMARK    6  A    between atoms: C_16  and  C_17
REMARK    7  A    between atoms: C_21  and  C_22
REMARK    8  A    between atoms: C_22  and  O_23
REMARK    9  A    between atoms: C_22  and  C_24
REMARK                            x       y       z     vdW  Elec       q    Type
REMARK                         _______ _______ _______ _____ _____    ______ ____
ROOT
ATOM      1  C   UNL A   1      33.501 -36.751 -29.053  0.00  0.00    +0.023 C 
ENDROOT
BRANCH   1  13
ATOM      2  C   UNL A   1      31.629 -36.093 -26.818  0.00  0.00    -0.022 C 
ATOM      3  C   UNL A   1      31.939 -35.111 -27.912  0.00  0.00    +0.045 A 
ATOM      4  N   UNL A   1      31.348 -33.900 -27.770  0.00  0.00    -0.251 NA
ATOM      5  C   UNL A   1      31.579 -32.947 -28.681  0.00  0.00    +0.076 A 
ATOM      6  C   UNL A   1      30.980 -31.707 -28.485  0.00  0.00    -0.035 A 
ATOM      7  C   UNL A   1      31.156 -30.647 -29.375  0.00  0.00    -0.057 A 
ATOM      8  C   UNL A   1      31.949 -30.831 -30.496  0.00  0.00    -0.026 A 
ATOM      9  C   UNL A   1      32.552 -32.068 -30.705  0.00  0.00    +0.134 A 
ATOM     10  F   UNL A   1      33.291 -32.215 -31.818  0.00  0.00    -0.205 F 
ATOM     11  C   UNL A   1      32.390 -33.152 -29.809  0.00  0.00    +0.056 A 
ATOM     12  C   UNL A   1      32.969 -34.441 -29.976  0.00  0.00    +0.042 A 
ATOM     13  C   UNL A   1      32.793 -35.421 -28.976  0.00  0.00    +0.005 A 
BRANCH  12  14
ATOM     14  N   UNL A   1      33.877 -34.688 -31.038  0.00  0.00    -0.357 N 
ATOM     15  H   UNL A   1      34.696 -35.209 -30.874  0.00  0.00    +0.000 HD
ATOM     16  H   UNL A   1      33.688 -34.339 -31.939  0.00  0.00    +0.000 HD
ENDBRANCH  12  14
ENDBRANCH   1  13
BRANCH   1  17
ATOM     17  S   UNL A   1      35.203 -36.650 -28.417  0.00  0.00    -0.151 S 
BRANCH  17  18
ATOM     18  C   UNL A   1      35.991 -37.868 -29.515  0.00  0.00    +0.019 C 
BRANCH  18  19
ATOM     19  C   UNL A   1      37.454 -37.564 -29.720  0.00  0.00    -0.037 A 
ATOM     20  C   UNL A   1      38.409 -38.053 -28.822  0.00  0.00    -0.058 A 
ATOM     21  C   UNL A   1      39.764 -37.794 -29.021  0.00  0.00    -0.061 A 
ATOM     22  C   UNL A   1      40.184 -37.051 -30.126  0.00  0.00    -0.056 A 
ATOM     23  C   UNL A   1      39.254 -36.549 -31.044  0.00  0.00    -0.010 A 
ATOM     24  C   UNL A   1      37.888 -36.818 -30.826  0.00  0.00    -0.052 A 
BRANCH  23  25
ATOM     25  C   UNL A   1      39.645 -35.774 -32.293  0.00  0.00    +0.175 C 
BRANCH  25  26
ATOM     26  C   UNL A   1      40.972 -36.167 -32.979  0.00  0.00    +0.420 C 
ATOM     27  F   UNL A   1      41.372 -37.412 -32.630  0.00  0.00    -0.168 F 
ATOM     28  F   UNL A   1      40.863 -36.134 -34.330  0.00  0.00    -0.168 F 
ATOM     29  F   UNL A   1      41.970 -35.319 -32.637  0.00  0.00    -0.168 F 
ENDBRANCH  25  26
BRANCH  25  30
ATOM     30  O   UNL A   1      38.526 -35.867 -33.199  0.00  0.00    -0.379 OA
ATOM     31  H   UNL A   1      38.615 -36.665 -33.743  0.00  0.00    +0.000 HD
ENDBRANCH  25  30
ENDBRANCH  23  25
ENDBRANCH  18  19
ENDBRANCH  17  18
ENDBRANCH   1  17
TORSDOF 8
ENDMDL
MODEL 6
REMARK VINA RESULT:    -7.517     16.879     19.349
REMARK INTER + INTRA:         -12.038
REMARK INTER:                 -11.040
REMARK INTRA:                  -0.998
REMARK UNBOUND:                -1.446
REMARK  Name = cpd235.pdb
REMARK  9 active torsions:
REMARK  status: ('A' for Active; 'I' for Inactive)
REMARK    1  A    between atoms: C_1  and  C_2
REMARK    2  A    between atoms: C_11  and  N_12
REMARK    3  A    between atoms: C_13  and  C_14
REMARK    4  A    between atoms: C_14  and  S_15
REMARK    5  A    between atoms: S_15  and  C_16
REMARK    6  A    between atoms: C_16  and  C_17
REMARK    7  A    between atoms: C_21  and  C_22
REMARK    8  A    between atoms: C_22  and  O_23
REMARK    9  A    between atoms: C_22  and  C_24
REMARK                            x       y       z     vdW  Elec       q    Type
REMARK                         _______ _______ _______ _____ _____    ______ ____
ROOT
ATOM      1  C   UNL A   1      43.364 -20.482 -38.130  0.00  0.00    +0.023 C 
ENDROOT
BRANCH   1  13
ATOM      2  C   UNL A   1      41.470 -22.110 -39.773  0.00  0.00    -0.022 C 
ATOM      3  C   UNL A   1      41.336 -21.999 -38.281  0.00  0.00    +0.045 A 
ATOM      4  N   UNL A   1      40.332 -22.734 -37.746  0.00  0.00    -0.251 NA
ATOM      5  C   UNL A   1      40.143 -22.720 -36.421  0.00  0.00    +0.076 A 
ATOM      6  C   UNL A   1      39.121 -23.512 -35.906  0.00  0.00    -0.035 A 
ATOM      7  C   UNL A   1      38.842 -23.569 -34.539  0.00  0.00    -0.057 A 
ATOM      8  C   UNL A   1      39.601 -22.811 -33.663  0.00  0.00    -0.026 A 
ATOM      9  C   UNL A   1      40.624 -22.013 -34.166  0.00  0.00    +0.134 A 
ATOM     10  F   UNL A   1      41.320 -21.272 -33.286  0.00  0.00    -0.205 F 
ATOM     11  C   UNL A   1      40.927 -21.948 -35.547  0.00  0.00    +0.056 A 
ATOM     12  C   UNL A   1      41.950 -21.143 -36.121  0.00  0.00    +0.042 A 
ATOM     13  C   UNL A   1      42.202 -21.217 -37.507  0.00  0.00    +0.005 A 
BRANCH  12  14
ATOM     14  N   UNL A   1      42.841 -20.416 -35.291  0.00  0.00    -0.357 N 
ATOM     15  H   UNL A   1      43.482 -19.784 -35.691  0.00  0.00    +0.000 HD
ATOM     16  H   UNL A   1      42.819 -20.542 -34.315  0.00  0.00    +0.000 HD
ENDBRANCH  12  14
ENDBRANCH   1  13
BRANCH   1  17
ATOM     17  S   UNL A   1      42.896 -18.805 -38.663  0.00  0.00    -0.151 S 
BRANCH  17  18
ATOM     18  C   UNL A   1      44.496 -18.266 -39.340  0.00  0.00    +0.019 C 
BRANCH  18  19
ATOM     19  C   UNL A   1      44.942 -19.151 -40.477  0.00  0.00    -0.037 A 
ATOM     20  C   UNL A   1      44.202 -19.202 -41.664  0.00  0.00    -0.058 A 
ATOM     21  C   UNL A   1      44.624 -20.000 -42.725  0.00  0.00    -0.061 A 
ATOM     22  C   UNL A   1      45.796 -20.752 -42.619  0.00  0.00    -0.056 A 
ATOM     23  C   UNL A   1      46.561 -20.722 -41.446  0.00  0.00    -0.010 A 
ATOM     24  C   UNL A   1      46.118 -19.911 -40.382  0.00  0.00    -0.052 A 
BRANCH  23  25
ATOM     25  C   UNL A   1      47.870 -21.476 -41.280  0.00  0.00    +0.175 C 
BRANCH  25  26
ATOM     26  C   UNL A   1      47.783 -22.942 -40.802  0.00  0.00    +0.420 C 
ATOM     27  F   UNL A   1      48.316 -23.801 -41.702  0.00  0.00    -0.168 F 
ATOM     28  F   UNL A   1      48.434 -23.123 -39.627  0.00  0.00    -0.168 F 
ATOM     29  F   UNL A   1      46.497 -23.319 -40.609  0.00  0.00    -0.168 F 
ENDBRANCH  25  26
BRANCH  25  30
ATOM     30  O   UNL A   1      48.569 -21.364 -42.537  0.00  0.00    -0.379 OA
ATOM     31  H   UNL A   1      49.192 -20.621 -42.496  0.00  0.00    +0.000 HD
ENDBRANCH  25  30
ENDBRANCH  23  25
ENDBRANCH  18  19
ENDBRANCH  17  18
ENDBRANCH   1  17
TORSDOF 8
ENDMDL
MODEL 7
REMARK VINA RESULT:    -7.410      2.568      3.775
REMARK INTER + INTRA:         -11.888
REMARK INTER:                 -11.009
REMARK INTRA:                  -0.879
REMARK UNBOUND:                -1.446
REMARK  Name = cpd235.pdb
REMARK  9 active torsions:
REMARK  status: ('A' for Active; 'I' for Inactive)
REMARK    1  A    between atoms: C_1  and  C_2
REMARK    2  A    between atoms: C_11  and  N_12
REMARK    3  A    between atoms: C_13  and  C_14
REMARK    4  A    between atoms: C_14  and  S_15
REMARK    5  A    between atoms: S_15  and  C_16
REMARK    6  A    between atoms: C_16  and  C_17
REMARK    7  A    between atoms: C_21  and  C_22
REMARK    8  A    between atoms: C_22  and  O_23
REMARK    9  A    between atoms: C_22  and  C_24
REMARK                            x       y       z     vdW  Elec       q    Type
REMARK                         _______ _______ _______ _____ _____    ______ ____
ROOT
ATOM      1  C   UNL A   1      35.535 -37.092 -30.159  0.00  0.00    +0.023 C 
ENDROOT
BRANCH   1  13
ATOM      2  C   UNL A   1      37.278 -38.948 -28.594  0.00  0.00    -0.022 C 
ATOM      3  C   UNL A   1      37.848 -37.857 -29.454  0.00  0.00    +0.045 A 
ATOM      4  N   UNL A   1      39.202 -37.822 -29.503  0.00  0.00    -0.251 NA
ATOM      5  C   UNL A   1      39.808 -36.900 -30.259  0.00  0.00    +0.076 A 
ATOM      6  C   UNL A   1      41.198 -36.915 -30.308  0.00  0.00    -0.035 A 
ATOM      7  C   UNL A   1      41.926 -35.998 -31.067  0.00  0.00    -0.057 A 
ATOM      8  C   UNL A   1      41.248 -35.034 -31.794  0.00  0.00    -0.026 A 
ATOM      9  C   UNL A   1      39.857 -35.006 -31.752  0.00  0.00    +0.134 A 
ATOM     10  F   UNL A   1      39.237 -34.038 -32.449  0.00  0.00    -0.205 F 
ATOM     11  C   UNL A   1      39.101 -35.933 -30.994  0.00  0.00    +0.056 A 
ATOM     12  C   UNL A   1      37.682 -35.946 -30.902  0.00  0.00    +0.042 A 
ATOM     13  C   UNL A   1      37.039 -36.966 -30.169  0.00  0.00    +0.005 A 
BRANCH  12  14
ATOM     14  N   UNL A   1      36.903 -35.063 -31.693  0.00  0.00    -0.357 N 
ATOM     15  H   UNL A   1      35.921 -35.079 -31.626  0.00  0.00    +0.000 HD
ATOM     16  H   UNL A   1      37.344 -34.434 -32.309  0.00  0.00    +0.000 HD
ENDBRANCH  12  14
ENDBRANCH   1  13
BRANCH   1  17
ATOM     17  S   UNL A   1      34.790 -36.190 -28.764  0.00  0.00    -0.151 S 
BRANCH  17  18
ATOM     18  C   UNL A   1      33.215 -35.714 -29.542  0.00  0.00    +0.019 C 
BRANCH  18  19
ATOM     19  C   UNL A   1      33.129 -34.222 -29.747  0.00  0.00    -0.037 A 
ATOM     20  C   UNL A   1      34.294 -33.450 -29.811  0.00  0.00    -0.058 A 
ATOM     21  C   UNL A   1      34.219 -32.074 -30.024  0.00  0.00    -0.061 A 
ATOM     22  C   UNL A   1      32.979 -31.453 -30.186  0.00  0.00    -0.056 A 
ATOM     23  C   UNL A   1      31.794 -32.198 -30.129  0.00  0.00    -0.010 A 
ATOM     24  C   UNL A   1      31.888 -33.587 -29.910  0.00  0.00    -0.052 A 
BRANCH  23  25
ATOM     25  C   UNL A   1      30.415 -31.595 -30.344  0.00  0.00    +0.175 C 
BRANCH  25  26
ATOM     26  C   UNL A   1      29.761 -30.885 -29.137  0.00  0.00    +0.420 C 
ATOM     27  F   UNL A   1      30.306 -31.278 -27.963  0.00  0.00    -0.168 F 
ATOM     28  F   UNL A   1      29.891 -29.539 -29.220  0.00  0.00    -0.168 F 
ATOM     29  F   UNL A   1      28.436 -31.156 -29.069  0.00  0.00    -0.168 F 
ENDBRANCH  25  26
BRANCH  25  30
ATOM     30  O   UNL A   1      30.525 -30.718 -31.485  0.00  0.00    -0.379 OA
ATOM     31  H   UNL A   1      31.457 -30.628 -31.735  0.00  0.00    +0.000 HD
ENDBRANCH  25  30
ENDBRANCH  23  25
ENDBRANCH  18  19
ENDBRANCH  17  18
ENDBRANCH   1  17
TORSDOF 8
ENDMDL
MODEL 8
REMARK VINA RESULT:    -7.405      3.897      9.069
REMARK INTER + INTRA:         -11.881
REMARK INTER:                 -11.274
REMARK INTRA:                  -0.606
REMARK UNBOUND:                -1.446
REMARK  Name = cpd235.pdb
REMARK  9 active torsions:
REMARK  status: ('A' for Active; 'I' for Inactive)
REMARK    1  A    between atoms: C_1  and  C_2
REMARK    2  A    between atoms: C_11  and  N_12
REMARK    3  A    between atoms: C_13  and  C_14
REMARK    4  A    between atoms: C_14  and  S_15
REMARK    5  A    between atoms: S_15  and  C_16
REMARK    6  A    between atoms: C_16  and  C_17
REMARK    7  A    between atoms: C_21  and  C_22
REMARK    8  A    between atoms: C_22  and  O_23
REMARK    9  A    between atoms: C_22  and  C_24
REMARK                            x       y       z     vdW  Elec       q    Type
REMARK                         _______ _______ _______ _____ _____    ______ ____
ROOT
ATOM      1  C   UNL A   1      34.247 -34.723 -31.470  0.00  0.00    +0.023 C 
ENDROOT
BRANCH   1  13
ATOM      2  C   UNL A   1      32.185 -36.426 -30.135  0.00  0.00    -0.022 C 
ATOM      3  C   UNL A   1      32.117 -34.926 -30.109  0.00  0.00    +0.045 A 
ATOM      4  N   UNL A   1      31.086 -34.418 -29.391  0.00  0.00    -0.251 NA
ATOM      5  C   UNL A   1      30.950 -33.091 -29.287  0.00  0.00    +0.076 A 
ATOM      6  C   UNL A   1      29.897 -32.607 -28.516  0.00  0.00    -0.035 A 
ATOM      7  C   UNL A   1      29.668 -31.241 -28.343  0.00  0.00    -0.057 A 
ATOM      8  C   UNL A   1      30.510 -30.332 -28.962  0.00  0.00    -0.026 A 
ATOM      9  C   UNL A   1      31.565 -30.803 -29.738  0.00  0.00    +0.134 A 
ATOM     10  F   UNL A   1      32.343 -29.889 -30.343  0.00  0.00    -0.205 F 
ATOM     11  C   UNL A   1      31.818 -32.184 -29.918  0.00  0.00    +0.056 A 
ATOM     12  C   UNL A   1      32.870 -32.724 -30.708  0.00  0.00    +0.042 A 
ATOM     13  C   UNL A   1      33.063 -34.121 -30.753  0.00  0.00    +0.005 A 
BRANCH  12  14
ATOM     14  N   UNL A   1      33.841 -31.871 -31.292  0.00  0.00    -0.357 N 
ATOM     15  H   UNL A   1      34.380 -32.186 -32.053  0.00  0.00    +0.000 HD
ATOM     16  H   UNL A   1      33.975 -30.962 -30.936  0.00  0.00    +0.000 HD
ENDBRANCH  12  14
ENDBRANCH   1  13
BRANCH   1  17
ATOM     17  S   UNL A   1      35.678 -34.924 -30.362  0.00  0.00    -0.151 S 
BRANCH  17  18
ATOM     18  C   UNL A   1      36.506 -36.302 -31.214  0.00  0.00    +0.019 C 
BRANCH  18  19
ATOM     19  C   UNL A   1      37.648 -36.851 -30.396  0.00  0.00    -0.037 A 
ATOM     20  C   UNL A   1      37.407 -37.428 -29.144  0.00  0.00    -0.058 A 
ATOM     21  C   UNL A   1      38.457 -37.958 -28.397  0.00  0.00    -0.061 A 
ATOM     22  C   UNL A   1      39.762 -37.927 -28.894  0.00  0.00    -0.056 A 
ATOM     23  C   UNL A   1      40.037 -37.358 -30.144  0.00  0.00    -0.010 A 
ATOM     24  C   UNL A   1      38.963 -36.825 -30.885  0.00  0.00    -0.052 A 
BRANCH  23  25
ATOM     25  C   UNL A   1      41.424 -37.334 -30.766  0.00  0.00    +0.175 C 
BRANCH  25  26
ATOM     26  C   UNL A   1      42.022 -35.949 -31.100  0.00  0.00    +0.420 C 
ATOM     27  F   UNL A   1      41.399 -34.954 -30.427  0.00  0.00    -0.168 F 
ATOM     28  F   UNL A   1      43.341 -35.889 -30.795  0.00  0.00    -0.168 F 
ATOM     29  F   UNL A   1      41.902 -35.670 -32.420  0.00  0.00    -0.168 F 
ENDBRANCH  25  26
BRANCH  25  30
ATOM     30  O   UNL A   1      42.281 -38.088 -29.884  0.00  0.00    -0.379 OA
ATOM     31  H   UNL A   1      43.096 -38.328 -30.352  0.00  0.00    +0.000 HD
ENDBRANCH  25  30
ENDBRANCH  23  25
ENDBRANCH  18  19
ENDBRANCH  17  18
ENDBRANCH   1  17
TORSDOF 8
ENDMDL
MODEL 9
REMARK VINA RESULT:    -7.023      3.096      7.346
REMARK INTER + INTRA:         -11.343
REMARK INTER:                 -10.275
REMARK INTRA:                  -1.068
REMARK UNBOUND:                -1.446
REMARK  Name = cpd235.pdb
REMARK  9 active torsions:
REMARK  status: ('A' for Active; 'I' for Inactive)
REMARK    1  A    between atoms: C_1  and  C_2
REMARK    2  A    between atoms: C_11  and  N_12
REMARK    3  A    between atoms: C_13  and  C_14
REMARK    4  A    between atoms: C_14  and  S_15
REMARK    5  A    between atoms: S_15  and  C_16
REMARK    6  A    between atoms: C_16  and  C_17
REMARK    7  A    between atoms: C_21  and  C_22
REMARK    8  A    between atoms: C_22  and  O_23
REMARK    9  A    between atoms: C_22  and  C_24
REMARK                            x       y       z     vdW  Elec       q    Type
REMARK                         _______ _______ _______ _____ _____    ______ ____
ROOT
ATOM      1  C   UNL A   1      32.962 -38.084 -30.717  0.00  0.00    +0.023 C 
ENDROOT
BRANCH   1  13
ATOM      2  C   UNL A   1      30.980 -37.221 -32.781  0.00  0.00    -0.022 C 
ATOM      3  C   UNL A   1      31.735 -36.232 -31.940  0.00  0.00    +0.045 A 
ATOM      4  N   UNL A   1      31.403 -34.935 -32.155  0.00  0.00    -0.251 NA
ATOM      5  C   UNL A   1      32.003 -33.977 -31.439  0.00  0.00    +0.076 A 
ATOM      6  C   UNL A   1      31.615 -32.661 -31.667  0.00  0.00    -0.035 A 
ATOM      7  C   UNL A   1      32.178 -31.589 -30.974  0.00  0.00    -0.057 A 
ATOM      8  C   UNL A   1      33.161 -31.837 -30.030  0.00  0.00    -0.026 A 
ATOM      9  C   UNL A   1      33.561 -33.149 -29.794  0.00  0.00    +0.134 A 
ATOM     10  F   UNL A   1      34.536 -33.345 -28.890  0.00  0.00    -0.205 F 
ATOM     11  C   UNL A   1      32.995 -34.250 -30.482  0.00  0.00    +0.056 A 
ATOM     12  C   UNL A   1      33.371 -35.609 -30.294  0.00  0.00    +0.042 A 
ATOM     13  C   UNL A   1      32.684 -36.626 -30.990  0.00  0.00    +0.005 A 
BRANCH  12  14
ATOM     14  N   UNL A   1      34.293 -35.965 -29.277  0.00  0.00    -0.357 N 
ATOM     15  H   UNL A   1      34.217 -36.837 -28.827  0.00  0.00    +0.000 HD
ATOM     16  H   UNL A   1      35.010 -35.340 -29.021  0.00  0.00    +0.000 HD
ENDBRANCH  12  14
ENDBRANCH   1  13
BRANCH   1  17
ATOM     17  S   UNL A   1      34.369 -38.699 -31.694  0.00  0.00    -0.151 S 
BRANCH  17  18
ATOM     18  C   UNL A   1      35.319 -39.489 -30.358  0.00  0.00    +0.019 C 
BRANCH  18  19
ATOM     19  C   UNL A   1      36.570 -38.712 -30.034  0.00  0.00    -0.037 A 
ATOM     20  C   UNL A   1      37.353 -39.063 -28.929  0.00  0.00    -0.058 A 
ATOM     21  C   UNL A   1      38.523 -38.363 -28.641  0.00  0.00    -0.061 A 
ATOM     22  C   UNL A   1      38.932 -37.307 -29.458  0.00  0.00    -0.056 A 
ATOM     23  C   UNL A   1      38.172 -36.931 -30.573  0.00  0.00    -0.010 A 
ATOM     24  C   UNL A   1      36.991 -37.649 -30.849  0.00  0.00    -0.052 A 
BRANCH  23  25
ATOM     25  C   UNL A   1      38.582 -35.825 -31.532  0.00  0.00    +0.175 C 
BRANCH  25  26
ATOM     26  C   UNL A   1      39.974 -35.945 -32.191  0.00  0.00    +0.420 C 
ATOM     27  F   UNL A   1      40.556 -37.138 -31.931  0.00  0.00    -0.168 F 
ATOM     28  F   UNL A   1      39.900 -35.809 -33.538  0.00  0.00    -0.168 F 
ATOM     29  F   UNL A   1      40.815 -34.987 -31.737  0.00  0.00    -0.168 F 
ENDBRANCH  25  26
BRANCH  25  30
ATOM     30  O   UNL A   1      37.531 -35.724 -32.515  0.00  0.00    -0.379 OA
ATOM     31  H   UNL A   1      36.673 -35.670 -32.066  0.00  0.00    +0.000 HD
ENDBRANCH  25  30
ENDBRANCH  23  25
ENDBRANCH  18  19
ENDBRANCH  17  18
ENDBRANCH   1  17
TORSDOF 8
ENDMDL
MODEL 10
REMARK VINA RESULT:    -6.996     17.159     19.659
REMARK INTER + INTRA:         -11.305
REMARK INTER:                 -10.163
REMARK INTRA:                  -1.142
REMARK UNBOUND:                -1.446
REMARK  Name = cpd235.pdb
REMARK  9 active torsions:
REMARK  status: ('A' for Active; 'I' for Inactive)
REMARK    1  A    between atoms: C_1  and  C_2
REMARK    2  A    between atoms: C_11  and  N_12
REMARK    3  A    between atoms: C_13  and  C_14
REMARK    4  A    between atoms: C_14  and  S_15
REMARK    5  A    between atoms: S_15  and  C_16
REMARK    6  A    between atoms: C_16  and  C_17
REMARK    7  A    between atoms: C_21  and  C_22
REMARK    8  A    between atoms: C_22  and  O_23
REMARK    9  A    between atoms: C_22  and  C_24
REMARK                            x       y       z     vdW  Elec       q    Type
REMARK                         _______ _______ _______ _____ _____    ______ ____
ROOT
ATOM      1  C   UNL A   1      44.338 -19.071 -36.113  0.00  0.00    +0.023 C 
ENDROOT
BRANCH   1  13
ATOM      2  C   UNL A   1      42.938 -20.322 -38.439  0.00  0.00    -0.022 C 
ATOM      3  C   UNL A   1      42.521 -20.589 -37.021  0.00  0.00    +0.045 A 
ATOM      4  N   UNL A   1      41.505 -21.476 -36.887  0.00  0.00    -0.251 NA
ATOM      5  C   UNL A   1      41.074 -21.799 -35.662  0.00  0.00    +0.076 A 
ATOM      6  C   UNL A   1      40.050 -22.737 -35.563  0.00  0.00    -0.035 A 
ATOM      7  C   UNL A   1      39.530 -23.143 -34.334  0.00  0.00    -0.057 A 
ATOM      8  C   UNL A   1      40.040 -22.593 -33.170  0.00  0.00    -0.026 A 
ATOM      9  C   UNL A   1      41.063 -21.652 -33.254  0.00  0.00    +0.134 A 
ATOM     10  F   UNL A   1      41.513 -21.123 -32.104  0.00  0.00    -0.205 F 
ATOM     11  C   UNL A   1      41.609 -21.234 -34.492  0.00  0.00    +0.056 A 
ATOM     12  C   UNL A   1      42.643 -20.269 -34.643  0.00  0.00    +0.042 A 
ATOM     13  C   UNL A   1      43.153 -19.987 -35.927  0.00  0.00    +0.005 A 
BRANCH  12  14
ATOM     14  N   UNL A   1      43.295 -19.732 -33.503  0.00  0.00    -0.357 N 
ATOM     15  H   UNL A   1      44.236 -19.449 -33.562  0.00  0.00    +0.000 HD
ATOM     16  H   UNL A   1      42.807 -19.642 -32.653  0.00  0.00    +0.000 HD
ENDBRANCH  12  14
ENDBRANCH   1  13
BRANCH   1  17
ATOM     17  S   UNL A   1      45.897 -20.001 -36.255  0.00  0.00    -0.151 S 
BRANCH  17  18
ATOM     18  C   UNL A   1      46.836 -18.828 -37.280  0.00  0.00    +0.019 C 
BRANCH  18  19
ATOM     19  C   UNL A   1      46.648 -19.106 -38.751  0.00  0.00    -0.037 A 
ATOM     20  C   UNL A   1      45.848 -18.265 -39.532  0.00  0.00    -0.058 A 
ATOM     21  C   UNL A   1      45.691 -18.504 -40.896  0.00  0.00    -0.061 A 
ATOM     22  C   UNL A   1      46.340 -19.583 -41.500  0.00  0.00    -0.056 A 
ATOM     23  C   UNL A   1      47.150 -20.443 -40.748  0.00  0.00    -0.010 A 
ATOM     24  C   UNL A   1      47.295 -20.187 -39.369  0.00  0.00    -0.052 A 
BRANCH  23  25
ATOM     25  C   UNL A   1      47.923 -21.606 -41.349  0.00  0.00    +0.175 C 
BRANCH  25  26
ATOM     26  C   UNL A   1      47.142 -22.915 -41.601  0.00  0.00    +0.420 C 
ATOM     27  F   UNL A   1      46.493 -22.897 -42.789  0.00  0.00    -0.168 F 
ATOM     28  F   UNL A   1      47.963 -23.993 -41.598  0.00  0.00    -0.168 F 
ATOM     29  F   UNL A   1      46.208 -23.120 -40.643  0.00  0.00    -0.168 F 
ENDBRANCH  25  26
BRANCH  25  30
ATOM     30  O   UNL A   1      48.537 -21.109 -42.556  0.00  0.00    -0.379 OA
ATOM     31  H   UNL A   1      48.417 -20.148 -42.608  0.00  0.00    +0.000 HD
ENDBRANCH  25  30
ENDBRANCH  23  25
ENDBRANCH  18  19
ENDBRANCH  17  18
ENDBRANCH   1  17
TORSDOF 8
ENDMDL
MODEL 11
REMARK VINA RESULT:    -6.917     16.150     17.999
REMARK INTER + INTRA:         -11.193
REMARK INTER:                 -10.125
REMARK INTRA:                  -1.068
REMARK UNBOUND:                -1.446
REMARK  Name = cpd235.pdb
REMARK  9 active torsions:
REMARK  status: ('A' for Active; 'I' for Inactive)
REMARK    1  A    between atoms: C_1  and  C_2
REMARK    2  A    between atoms: C_11  and  N_12
REMARK    3  A    between atoms: C_13  and  C_14
REMARK    4  A    between atoms: C_14  and  S_15
REMARK    5  A    between atoms: S_15  and  C_16
REMARK    6  A    between atoms: C_16  and  C_17
REMARK    7  A    between atoms: C_21  and  C_22
REMARK    8  A    between atoms: C_22  and  O_23
REMARK    9  A    between atoms: C_22  and  C_24
REMARK                            x       y       z     vdW  Elec       q    Type
REMARK                         _______ _______ _______ _____ _____    ______ ____
ROOT
ATOM      1  C   UNL A   1      45.035 -19.048 -37.579  0.00  0.00    +0.023 C 
ENDROOT
BRANCH   1  13
ATOM      2  C   UNL A   1      43.050 -18.700 -39.786  0.00  0.00    -0.022 C 
ATOM      3  C   UNL A   1      44.163 -19.705 -39.868  0.00  0.00    +0.045 A 
ATOM      4  N   UNL A   1      44.222 -20.391 -41.035  0.00  0.00    -0.251 NA
ATOM      5  C   UNL A   1      45.192 -21.295 -41.216  0.00  0.00    +0.076 A 
ATOM      6  C   UNL A   1      45.238 -21.958 -42.439  0.00  0.00    -0.035 A 
ATOM      7  C   UNL A   1      46.210 -22.917 -42.729  0.00  0.00    -0.057 A 
ATOM      8  C   UNL A   1      47.158 -23.229 -41.769  0.00  0.00    -0.026 A 
ATOM      9  C   UNL A   1      47.121 -22.576 -40.540  0.00  0.00    +0.134 A 
ATOM     10  F   UNL A   1      48.042 -22.926 -39.626  0.00  0.00    -0.205 F 
ATOM     11  C   UNL A   1      46.149 -21.594 -40.231  0.00  0.00    +0.056 A 
ATOM     12  C   UNL A   1      46.053 -20.903 -38.992  0.00  0.00    +0.042 A 
ATOM     13  C   UNL A   1      45.081 -19.893 -38.829  0.00  0.00    +0.005 A 
BRANCH  12  14
ATOM     14  N   UNL A   1      47.042 -21.083 -37.991  0.00  0.00    -0.357 N 
ATOM     15  H   UNL A   1      47.951 -21.362 -38.242  0.00  0.00    +0.000 HD
ATOM     16  H   UNL A   1      46.818 -20.928 -37.045  0.00  0.00    +0.000 HD
ENDBRANCH  12  14
ENDBRANCH   1  13
BRANCH   1  17
ATOM     17  S   UNL A   1      44.243 -19.927 -36.196  0.00  0.00    -0.151 S 
BRANCH  17  18
ATOM     18  C   UNL A   1      42.768 -18.880 -36.001  0.00  0.00    +0.019 C 
BRANCH  18  19
ATOM     19  C   UNL A   1      41.507 -19.630 -36.352  0.00  0.00    -0.037 A 
ATOM     20  C   UNL A   1      40.567 -19.064 -37.220  0.00  0.00    -0.058 A 
ATOM     21  C   UNL A   1      39.412 -19.764 -37.565  0.00  0.00    -0.061 A 
ATOM     22  C   UNL A   1      39.186 -21.044 -37.055  0.00  0.00    -0.056 A 
ATOM     23  C   UNL A   1      40.108 -21.640 -36.186  0.00  0.00    -0.010 A 
ATOM     24  C   UNL A   1      41.268 -20.917 -35.846  0.00  0.00    -0.052 A 
BRANCH  23  25
ATOM     25  C   UNL A   1      39.948 -23.048 -35.632  0.00  0.00    +0.175 C 
BRANCH  25  26
ATOM     26  C   UNL A   1      39.327 -23.184 -34.224  0.00  0.00    +0.420 C 
ATOM     27  F   UNL A   1      38.962 -21.985 -33.714  0.00  0.00    -0.168 F 
ATOM     28  F   UNL A   1      38.228 -23.976 -34.239  0.00  0.00    -0.168 F 
ATOM     29  F   UNL A   1      40.206 -23.734 -33.353  0.00  0.00    -0.168 F 
ENDBRANCH  25  26
BRANCH  25  30
ATOM     30  O   UNL A   1      39.205 -23.793 -36.619  0.00  0.00    -0.379 OA
ATOM     31  H   UNL A   1      39.228 -23.322 -37.466  0.00  0.00    +0.000 HD
ENDBRANCH  25  30
ENDBRANCH  23  25
ENDBRANCH  18  19
ENDBRANCH  17  18
ENDBRANCH   1  17
TORSDOF 8
ENDMDL
MODEL 12
REMARK VINA RESULT:    -6.913     16.669     19.450
REMARK INTER + INTRA:         -11.187
REMARK INTER:                 -10.798
REMARK INTRA:                  -0.389
REMARK UNBOUND:                -1.446
REMARK  Name = cpd235.pdb
REMARK  9 active torsions:
REMARK  status: ('A' for Active; 'I' for Inactive)
REMARK    1  A    between atoms: C_1  and  C_2
REMARK    2  A    between atoms: C_11  and  N_12
REMARK    3  A    between atoms: C_13  and  C_14
REMARK    4  A    between atoms: C_14  and  S_15
REMARK    5  A    between atoms: S_15  and  C_16
REMARK    6  A    between atoms: C_16  and  C_17
REMARK    7  A    between atoms: C_21  and  C_22
REMARK    8  A    between atoms: C_22  and  O_23
REMARK    9  A    between atoms: C_22  and  C_24
REMARK                            x       y       z     vdW  Elec       q    Type
REMARK                         _______ _______ _______ _____ _____    ______ ____
ROOT
ATOM      1  C   UNL A   1      41.222 -21.942 -38.347  0.00  0.00    +0.023 C 
ENDROOT
BRANCH   1  13
ATOM      2  C   UNL A   1      39.184 -19.842 -38.957  0.00  0.00    -0.022 C 
ATOM      3  C   UNL A   1      39.347 -20.417 -37.578  0.00  0.00    +0.045 A 
ATOM      4  N   UNL A   1      38.466 -19.948 -36.661  0.00  0.00    -0.251 NA
ATOM      5  C   UNL A   1      38.514 -20.414 -35.408  0.00  0.00    +0.076 A 
ATOM      6  C   UNL A   1      37.574 -19.932 -34.503  0.00  0.00    -0.035 A 
ATOM      7  C   UNL A   1      37.538 -20.354 -33.173  0.00  0.00    -0.057 A 
ATOM      8  C   UNL A   1      38.469 -21.279 -32.732  0.00  0.00    -0.026 A 
ATOM      9  C   UNL A   1      39.417 -21.767 -33.627  0.00  0.00    +0.134 A 
ATOM     10  F   UNL A   1      40.321 -22.643 -33.154  0.00  0.00    -0.205 F 
ATOM     11  C   UNL A   1      39.464 -21.357 -34.981  0.00  0.00    +0.056 A 
ATOM     12  C   UNL A   1      40.415 -21.809 -35.938  0.00  0.00    +0.042 A 
ATOM     13  C   UNL A   1      40.316 -21.380 -37.278  0.00  0.00    +0.005 A 
BRANCH  12  14
ATOM     14  N   UNL A   1      41.339 -22.832 -35.603  0.00  0.00    -0.357 N 
ATOM     15  H   UNL A   1      41.663 -23.450 -36.298  0.00  0.00    +0.000 HD
ATOM     16  H   UNL A   1      41.657 -22.924 -34.675  0.00  0.00    +0.000 HD
ENDBRANCH  12  14
ENDBRANCH   1  13
BRANCH   1  17
ATOM     17  S   UNL A   1      42.732 -20.944 -38.547  0.00  0.00    -0.151 S 
BRANCH  17  18
ATOM     18  C   UNL A   1      42.940 -21.102 -40.348  0.00  0.00    +0.019 C 
BRANCH  18  19
ATOM     19  C   UNL A   1      44.251 -20.515 -40.807  0.00  0.00    -0.037 A 
ATOM     20  C   UNL A   1      44.393 -19.131 -40.949  0.00  0.00    -0.058 A 
ATOM     21  C   UNL A   1      45.611 -18.583 -41.350  0.00  0.00    -0.061 A 
ATOM     22  C   UNL A   1      46.706 -19.410 -41.605  0.00  0.00    -0.056 A 
ATOM     23  C   UNL A   1      46.597 -20.800 -41.470  0.00  0.00    -0.010 A 
ATOM     24  C   UNL A   1      45.359 -21.337 -41.066  0.00  0.00    -0.052 A 
BRANCH  23  25
ATOM     25  C   UNL A   1      47.761 -21.756 -41.684  0.00  0.00    +0.175 C 
BRANCH  25  26
ATOM     26  C   UNL A   1      47.419 -23.186 -42.158  0.00  0.00    +0.420 C 
ATOM     27  F   UNL A   1      48.493 -23.810 -42.696  0.00  0.00    -0.168 F 
ATOM     28  F   UNL A   1      46.966 -23.954 -41.138  0.00  0.00    -0.168 F 
ATOM     29  F   UNL A   1      46.454 -23.170 -43.108  0.00  0.00    -0.168 F 
ENDBRANCH  25  26
BRANCH  25  30
ATOM     30  O   UNL A   1      48.671 -21.095 -42.588  0.00  0.00    -0.379 OA
ATOM     31  H   UNL A   1      48.176 -20.731 -43.338  0.00  0.00    +0.000 HD
ENDBRANCH  25  30
ENDBRANCH  23  25
ENDBRANCH  18  19
ENDBRANCH  17  18
ENDBRANCH   1  17
TORSDOF 8
ENDMDL
MODEL 13
REMARK VINA RESULT:    -6.907     16.603     19.234
REMARK INTER + INTRA:         -11.179
REMARK INTER:                 -10.373
REMARK INTRA:                  -0.806
REMARK UNBOUND:                -1.446
REMARK  Name = cpd235.pdb
REMARK  9 active torsions:
REMARK  status: ('A' for Active; 'I' for Inactive)
REMARK    1  A    between atoms: C_1  and  C_2
REMARK    2  A    between atoms: C_11  and  N_12
REMARK    3  A    between atoms: C_13  and  C_14
REMARK    4  A    between atoms: C_14  and  S_15
REMARK    5  A    between atoms: S_15  and  C_16
REMARK    6  A    between atoms: C_16  and  C_17
REMARK    7  A    between atoms: C_21  and  C_22
REMARK    8  A    between atoms: C_22  and  O_23
REMARK    9  A    between atoms: C_22  and  C_24
REMARK                            x       y       z     vdW  Elec       q    Type
REMARK                         _______ _______ _______ _____ _____    ______ ____
ROOT
ATOM      1  C   UNL A   1      42.802 -20.948 -37.716  0.00  0.00    +0.023 C 
ENDROOT
BRANCH   1  13
ATOM      2  C   UNL A   1      43.269 -19.143 -35.380  0.00  0.00    -0.022 C 
ATOM      3  C   UNL A   1      42.153 -20.147 -35.398  0.00  0.00    +0.045 A 
ATOM      4  N   UNL A   1      41.353 -20.126 -34.304  0.00  0.00    -0.251 NA
ATOM      5  C   UNL A   1      40.316 -20.968 -34.233  0.00  0.00    +0.076 A 
ATOM      6  C   UNL A   1      39.500 -20.896 -33.109  0.00  0.00    -0.035 A 
ATOM      7  C   UNL A   1      38.393 -21.729 -32.938  0.00  0.00    -0.057 A 
ATOM      8  C   UNL A   1      38.095 -22.664 -33.915  0.00  0.00    -0.026 A 
ATOM      9  C   UNL A   1      38.904 -22.748 -35.045  0.00  0.00    +0.134 A 
ATOM     10  F   UNL A   1      38.597 -23.686 -35.957  0.00  0.00    -0.205 F 
ATOM     11  C   UNL A   1      40.027 -21.907 -35.238  0.00  0.00    +0.056 A 
ATOM     12  C   UNL A   1      40.897 -21.955 -36.362  0.00  0.00    +0.042 A 
ATOM     13  C   UNL A   1      41.943 -21.015 -36.476  0.00  0.00    +0.005 A 
BRANCH  12  14
ATOM     14  N   UNL A   1      40.609 -22.808 -37.458  0.00  0.00    -0.357 N 
ATOM     15  H   UNL A   1      40.196 -23.688 -37.302  0.00  0.00    +0.000 HD
ATOM     16  H   UNL A   1      40.822 -22.521 -38.376  0.00  0.00    +0.000 HD
ENDBRANCH  12  14
ENDBRANCH   1  13
BRANCH   1  17
ATOM     17  S   UNL A   1      42.109 -19.813 -38.958  0.00  0.00    -0.151 S 
BRANCH  17  18
ATOM     18  C   UNL A   1      43.663 -19.182 -39.664  0.00  0.00    +0.019 C 
BRANCH  18  19
ATOM     19  C   UNL A   1      44.280 -20.174 -40.618  0.00  0.00    -0.037 A 
ATOM     20  C   UNL A   1      43.482 -20.855 -41.544  0.00  0.00    -0.058 A 
ATOM     21  C   UNL A   1      44.051 -21.754 -42.443  0.00  0.00    -0.061 A 
ATOM     22  C   UNL A   1      45.429 -21.980 -42.435  0.00  0.00    -0.056 A 
ATOM     23  C   UNL A   1      46.257 -21.315 -41.522  0.00  0.00    -0.010 A 
ATOM     24  C   UNL A   1      45.664 -20.410 -40.619  0.00  0.00    -0.052 A 
BRANCH  23  25
ATOM     25  C   UNL A   1      47.769 -21.477 -41.490  0.00  0.00    +0.175 C 
BRANCH  25  26
ATOM     26  C   UNL A   1      48.319 -22.908 -41.301  0.00  0.00    +0.420 C 
ATOM     27  F   UNL A   1      47.522 -23.657 -40.505  0.00  0.00    -0.168 F 
ATOM     28  F   UNL A   1      48.440 -23.555 -42.486  0.00  0.00    -0.168 F 
ATOM     29  F   UNL A   1      49.546 -22.890 -40.728  0.00  0.00    -0.168 F 
ENDBRANCH  25  26
BRANCH  25  30
ATOM     30  O   UNL A   1      48.272 -20.865 -42.695  0.00  0.00    -0.379 OA
ATOM     31  H   UNL A   1      48.295 -19.902 -42.583  0.00  0.00    +0.000 HD
ENDBRANCH  25  30
ENDBRANCH  23  25
ENDBRANCH  18  19
ENDBRANCH  17  18
ENDBRANCH   1  17
TORSDOF 8
ENDMDL
MODEL 14
REMARK VINA RESULT:    -6.901     17.090     19.662
REMARK INTER + INTRA:         -11.170
REMARK INTER:                 -10.415
REMARK INTRA:                  -0.755
REMARK UNBOUND:                -1.446
REMARK  Name = cpd235.pdb
REMARK  9 active torsions:
REMARK  status: ('A' for Active; 'I' for Inactive)
REMARK    1  A    between atoms: C_1  and  C_2
REMARK    2  A    between atoms: C_11  and  N_12
REMARK    3  A    between atoms: C_13  and  C_14
REMARK    4  A    between atoms: C_14  and  S_15
REMARK    5  A    between atoms: S_15  and  C_16
REMARK    6  A    between atoms: C_16  and  C_17
REMARK    7  A    between atoms: C_21  and  C_22
REMARK    8  A    between atoms: C_22  and  O_23
REMARK    9  A    between atoms: C_22  and  C_24
REMARK                            x       y       z     vdW  Elec       q    Type
REMARK                         _______ _______ _______ _____ _____    ______ ____
ROOT
ATOM      1  C   UNL A   1      44.326 -19.183 -36.210  0.00  0.00    +0.023 C 
ENDROOT
BRANCH   1  13
ATOM      2  C   UNL A   1      43.922 -19.080 -33.250  0.00  0.00    -0.022 C 
ATOM      3  C   UNL A   1      43.074 -19.943 -34.140  0.00  0.00    +0.045 A 
ATOM      4  N   UNL A   1      42.088 -20.619 -33.501  0.00  0.00    -0.251 NA
ATOM      5  C   UNL A   1      41.263 -21.399 -34.208  0.00  0.00    +0.076 A 
ATOM      6  C   UNL A   1      40.244 -22.053 -33.521  0.00  0.00    -0.035 A 
ATOM      7  C   UNL A   1      39.330 -22.888 -34.165  0.00  0.00    -0.057 A 
ATOM      8  C   UNL A   1      39.439 -23.082 -35.532  0.00  0.00    -0.026 A 
ATOM      9  C   UNL A   1      40.456 -22.437 -36.230  0.00  0.00    +0.134 A 
ATOM     10  F   UNL A   1      40.545 -22.672 -37.551  0.00  0.00    -0.205 F 
ATOM     11  C   UNL A   1      41.387 -21.579 -35.596  0.00  0.00    +0.056 A 
ATOM     12  C   UNL A   1      42.452 -20.904 -36.253  0.00  0.00    +0.042 A 
ATOM     13  C   UNL A   1      43.274 -20.018 -35.523  0.00  0.00    +0.005 A 
BRANCH  12  14
ATOM     14  N   UNL A   1      42.577 -20.962 -37.665  0.00  0.00    -0.357 N 
ATOM     15  H   UNL A   1      42.813 -21.811 -38.104  0.00  0.00    +0.000 HD
ATOM     16  H   UNL A   1      42.429 -20.152 -38.206  0.00  0.00    +0.000 HD
ENDBRANCH  12  14
ENDBRANCH   1  13
BRANCH   1  17
ATOM     17  S   UNL A   1      45.857 -20.126 -36.498  0.00  0.00    -0.151 S 
BRANCH  17  18
ATOM     18  C   UNL A   1      46.658 -19.010 -37.690  0.00  0.00    +0.019 C 
BRANCH  18  19
ATOM     19  C   UNL A   1      46.448 -19.473 -39.110  0.00  0.00    -0.037 A 
ATOM     20  C   UNL A   1      45.415 -18.932 -39.884  0.00  0.00    -0.058 A 
ATOM     21  C   UNL A   1      45.233 -19.340 -41.204  0.00  0.00    -0.061 A 
ATOM     22  C   UNL A   1      46.084 -20.289 -41.772  0.00  0.00    -0.056 A 
ATOM     23  C   UNL A   1      47.128 -20.850 -41.025  0.00  0.00    -0.010 A 
ATOM     24  C   UNL A   1      47.297 -20.427 -39.691  0.00  0.00    -0.052 A 
BRANCH  23  25
ATOM     25  C   UNL A   1      48.121 -21.852 -41.594  0.00  0.00    +0.175 C 
BRANCH  25  26
ATOM     26  C   UNL A   1      47.573 -23.242 -41.984  0.00  0.00    +0.420 C 
ATOM     27  F   UNL A   1      48.551 -24.067 -42.424  0.00  0.00    -0.168 F 
ATOM     28  F   UNL A   1      46.964 -23.850 -40.937  0.00  0.00    -0.168 F 
ATOM     29  F   UNL A   1      46.659 -23.148 -42.978  0.00  0.00    -0.168 F 
ENDBRANCH  25  26
BRANCH  25  30
ATOM     30  O   UNL A   1      48.767 -21.200 -42.707  0.00  0.00    -0.379 OA
ATOM     31  H   UNL A   1      49.419 -21.801 -43.100  0.00  0.00    +0.000 HD
ENDBRANCH  25  30
ENDBRANCH  23  25
ENDBRANCH  18  19
ENDBRANCH  17  18
ENDBRANCH   1  17
TORSDOF 8
ENDMDL
MODEL 15
REMARK VINA RESULT:    -6.763     18.868     21.292
REMARK INTER + INTRA:         -10.976
REMARK INTER:                  -9.687
REMARK INTRA:                  -1.289
REMARK UNBOUND:                -1.446
REMARK  Name = cpd235.pdb
REMARK  9 active torsions:
REMARK  status: ('A' for Active; 'I' for Inactive)
REMARK    1  A    between atoms: C_1  and  C_2
REMARK    2  A    between atoms: C_11  and  N_12
REMARK    3  A    between atoms: C_13  and  C_14
REMARK    4  A    between atoms: C_14  and  S_15
REMARK    5  A    between atoms: S_15  and  C_16
REMARK    6  A    between atoms: C_16  and  C_17
REMARK    7  A    between atoms: C_21  and  C_22
REMARK    8  A    between atoms: C_22  and  O_23
REMARK    9  A    between atoms: C_22  and  C_24
REMARK                            x       y       z     vdW  Elec       q    Type
REMARK                         _______ _______ _______ _____ _____    ______ ____
ROOT
ATOM      1  C   UNL A   1      45.467 -17.045 -37.481  0.00  0.00    +0.023 C 
ENDROOT
BRANCH   1  13
ATOM      2  C   UNL A   1      46.182 -19.791 -36.539  0.00  0.00    -0.022 C 
ATOM      3  C   UNL A   1      44.861 -19.490 -37.188  0.00  0.00    +0.045 A 
ATOM      4  N   UNL A   1      44.011 -20.544 -37.258  0.00  0.00    -0.251 NA
ATOM      5  C   UNL A   1      42.799 -20.375 -37.799  0.00  0.00    +0.076 A 
ATOM      6  C   UNL A   1      41.944 -21.472 -37.826  0.00  0.00    -0.035 A 
ATOM      7  C   UNL A   1      40.659 -21.400 -38.367  0.00  0.00    -0.057 A 
ATOM      8  C   UNL A   1      40.218 -20.202 -38.902  0.00  0.00    -0.026 A 
ATOM      9  C   UNL A   1      41.065 -19.097 -38.884  0.00  0.00    +0.134 A 
ATOM     10  F   UNL A   1      40.609 -17.960 -39.437  0.00  0.00    -0.205 F 
ATOM     11  C   UNL A   1      42.368 -19.148 -38.333  0.00  0.00    +0.056 A 
ATOM     12  C   UNL A   1      43.282 -18.059 -38.297  0.00  0.00    +0.042 A 
ATOM     13  C   UNL A   1      44.529 -18.214 -37.656  0.00  0.00    +0.005 A 
BRANCH  12  14
ATOM     14  N   UNL A   1      42.878 -16.769 -38.727  0.00  0.00    -0.357 N 
ATOM     15  H   UNL A   1      42.673 -16.070 -38.065  0.00  0.00    +0.000 HD
ATOM     16  H   UNL A   1      42.803 -16.572 -39.689  0.00  0.00    +0.000 HD
ENDBRANCH  12  14
ENDBRANCH   1  13
BRANCH   1  17
ATOM     17  S   UNL A   1      46.930 -17.185 -38.555  0.00  0.00    -0.151 S 
BRANCH  17  18
ATOM     18  C   UNL A   1      46.138 -16.853 -40.159  0.00  0.00    +0.019 C 
BRANCH  18  19
ATOM     19  C   UNL A   1      45.865 -18.128 -40.916  0.00  0.00    -0.037 A 
ATOM     20  C   UNL A   1      44.706 -18.256 -41.690  0.00  0.00    -0.058 A 
ATOM     21  C   UNL A   1      44.462 -19.424 -42.411  0.00  0.00    -0.061 A 
ATOM     22  C   UNL A   1      45.377 -20.478 -42.374  0.00  0.00    -0.056 A 
ATOM     23  C   UNL A   1      46.547 -20.382 -41.609  0.00  0.00    -0.010 A 
ATOM     24  C   UNL A   1      46.777 -19.195 -40.886  0.00  0.00    -0.052 A 
BRANCH  23  25
ATOM     25  C   UNL A   1      47.608 -21.471 -41.562  0.00  0.00    +0.175 C 
BRANCH  25  26
ATOM     26  C   UNL A   1      47.114 -22.933 -41.493  0.00  0.00    +0.420 C 
ATOM     27  F   UNL A   1      48.109 -23.788 -41.160  0.00  0.00    -0.168 F 
ATOM     28  F   UNL A   1      46.122 -23.081 -40.582  0.00  0.00    -0.168 F 
ATOM     29  F   UNL A   1      46.625 -23.341 -42.688  0.00  0.00    -0.168 F 
ENDBRANCH  25  26
BRANCH  25  30
ATOM     30  O   UNL A   1      48.471 -21.250 -42.697  0.00  0.00    -0.379 OA
ATOM     31  H   UNL A   1      47.944 -21.254 -43.510  0.00  0.00    +0.000 HD
ENDBRANCH  25  30
ENDBRANCH  23  25
ENDBRANCH  18  19
ENDBRANCH  17  18
ENDBRANCH   1  17
TORSDOF 8
ENDMDL
MODEL 16
REMARK VINA RESULT:    -6.731     23.420     25.468
REMARK INTER + INTRA:         -10.931
REMARK INTER:                 -10.201
REMARK INTRA:                  -0.729
REMARK UNBOUND:                -1.446
REMARK  Name = cpd235.pdb
REMARK  9 active torsions:
REMARK  status: ('A' for Active; 'I' for Inactive)
REMARK    1  A    between atoms: C_1  and  C_2
REMARK    2  A    between atoms: C_11  and  N_12
REMARK    3  A    between atoms: C_13  and  C_14
REMARK    4  A    between atoms: C_14  and  S_15
REMARK    5  A    between atoms: S_15  and  C_16
REMARK    6  A    between atoms: C_16  and  C_17
REMARK    7  A    between atoms: C_21  and  C_22
REMARK    8  A    between atoms: C_22  and  O_23
REMARK    9  A    between atoms: C_22  and  C_24
REMARK                            x       y       z     vdW  Elec       q    Type
REMARK                         _______ _______ _______ _____ _____    ______ ____
ROOT
ATOM      1  C   UNL A   1      46.709 -14.509 -39.965  0.00  0.00    +0.023 C 
ENDROOT
BRANCH   1  13
ATOM      2  C   UNL A   1      43.945 -13.991 -40.979  0.00  0.00    -0.022 C 
ATOM      3  C   UNL A   1      45.166 -13.645 -41.782  0.00  0.00    +0.045 A 
ATOM      4  N   UNL A   1      44.911 -13.036 -42.966  0.00  0.00    -0.251 NA
ATOM      5  C   UNL A   1      45.933 -12.666 -43.747  0.00  0.00    +0.076 A 
ATOM      6  C   UNL A   1      45.633 -12.016 -44.940  0.00  0.00    -0.035 A 
ATOM      7  C   UNL A   1      46.625 -11.590 -45.825  0.00  0.00    -0.057 A 
ATOM      8  C   UNL A   1      47.953 -11.824 -45.513  0.00  0.00    -0.026 A 
ATOM      9  C   UNL A   1      48.267 -12.477 -44.324  0.00  0.00    +0.134 A 
ATOM     10  F   UNL A   1      49.567 -12.709 -44.071  0.00  0.00    -0.205 F 
ATOM     11  C   UNL A   1      47.276 -12.909 -43.411  0.00  0.00    +0.056 A 
ATOM     12  C   UNL A   1      47.534 -13.590 -42.189  0.00  0.00    +0.042 A 
ATOM     13  C   UNL A   1      46.463 -13.908 -41.327  0.00  0.00    +0.005 A 
BRANCH  12  14
ATOM     14  N   UNL A   1      48.866 -13.780 -41.740  0.00  0.00    -0.357 N 
ATOM     15  H   UNL A   1      49.285 -13.117 -41.146  0.00  0.00    +0.000 HD
ATOM     16  H   UNL A   1      49.372 -14.577 -42.023  0.00  0.00    +0.000 HD
ENDBRANCH  12  14
ENDBRANCH   1  13
BRANCH   1  17
ATOM     17  S   UNL A   1      47.176 -16.265 -40.073  0.00  0.00    -0.151 S 
BRANCH  17  18
ATOM     18  C   UNL A   1      45.513 -17.002 -40.080  0.00  0.00    +0.019 C 
BRANCH  18  19
ATOM     19  C   UNL A   1      45.455 -18.229 -40.955  0.00  0.00    -0.037 A 
ATOM     20  C   UNL A   1      44.413 -18.392 -41.875  0.00  0.00    -0.058 A 
ATOM     21  C   UNL A   1      44.369 -19.513 -42.702  0.00  0.00    -0.061 A 
ATOM     22  C   UNL A   1      45.371 -20.482 -42.628  0.00  0.00    -0.056 A 
ATOM     23  C   UNL A   1      46.429 -20.348 -41.720  0.00  0.00    -0.010 A 
ATOM     24  C   UNL A   1      46.456 -19.210 -40.890  0.00  0.00    -0.052 A 
BRANCH  23  25
ATOM     25  C   UNL A   1      47.578 -21.340 -41.620  0.00  0.00    +0.175 C 
BRANCH  25  26
ATOM     26  C   UNL A   1      47.212 -22.841 -41.599  0.00  0.00    +0.420 C 
ATOM     27  F   UNL A   1      46.807 -23.280 -42.813  0.00  0.00    -0.168 F 
ATOM     28  F   UNL A   1      48.265 -23.604 -41.216  0.00  0.00    -0.168 F 
ATOM     29  F   UNL A   1      46.202 -23.086 -40.731  0.00  0.00    -0.168 F 
ENDBRANCH  25  26
BRANCH  25  30
ATOM     30  O   UNL A   1      48.485 -21.025 -42.697  0.00  0.00    -0.379 OA
ATOM     31  H   UNL A   1      47.981 -20.882 -43.513  0.00  0.00    +0.000 HD
ENDBRANCH  25  30
ENDBRANCH  23  25
ENDBRANCH  18  19
ENDBRANCH  17  18
ENDBRANCH   1  17
TORSDOF 8
ENDMDL
MODEL 17
REMARK VINA RESULT:    -6.722      4.694      5.962
REMARK INTER + INTRA:         -10.919
REMARK INTER:                 -10.269
REMARK INTRA:                  -0.649
REMARK UNBOUND:                -1.446
REMARK  Name = cpd235.pdb
REMARK  9 active torsions:
REMARK  status: ('A' for Active; 'I' for Inactive)
REMARK    1  A    between atoms: C_1  and  C_2
REMARK    2  A    between atoms: C_11  and  N_12
REMARK    3  A    between atoms: C_13  and  C_14
REMARK    4  A    between atoms: C_14  and  S_15
REMARK    5  A    between atoms: S_15  and  C_16
REMARK    6  A    between atoms: C_16  and  C_17
REMARK    7  A    between atoms: C_21  and  C_22
REMARK    8  A    between atoms: C_22  and  O_23
REMARK    9  A    between atoms: C_22  and  C_24
REMARK                            x       y       z     vdW  Elec       q    Type
REMARK                         _______ _______ _______ _____ _____    ______ ____
ROOT
ATOM      1  C   UNL A   1      35.629 -37.146 -30.051  0.00  0.00    +0.023 C 
ENDROOT
BRANCH   1  13
ATOM      2  C   UNL A   1      37.494 -39.032 -28.672  0.00  0.00    -0.022 C 
ATOM      3  C   UNL A   1      37.992 -37.887 -29.508  0.00  0.00    +0.045 A 
ATOM      4  N   UNL A   1      39.341 -37.817 -29.626  0.00  0.00    -0.251 NA
ATOM      5  C   UNL A   1      39.885 -36.845 -30.368  0.00  0.00    +0.076 A 
ATOM      6  C   UNL A   1      41.270 -36.825 -30.491  0.00  0.00    -0.035 A 
ATOM      7  C   UNL A   1      41.936 -35.854 -31.242  0.00  0.00    -0.057 A 
ATOM      8  C   UNL A   1      41.198 -34.874 -31.884  0.00  0.00    -0.026 A 
ATOM      9  C   UNL A   1      39.811 -34.882 -31.767  0.00  0.00    +0.134 A 
ATOM     10  F   UNL A   1      39.133 -33.898 -32.383  0.00  0.00    -0.205 F 
ATOM     11  C   UNL A   1      39.118 -35.862 -31.016  0.00  0.00    +0.056 A 
ATOM     12  C   UNL A   1      37.706 -35.915 -30.850  0.00  0.00    +0.042 A 
ATOM     13  C   UNL A   1      37.127 -36.984 -30.134  0.00  0.00    +0.005 A 
BRANCH  12  14
ATOM     14  N   UNL A   1      36.866 -35.015 -31.554  0.00  0.00    -0.357 N 
ATOM     15  H   UNL A   1      37.161 -34.636 -32.413  0.00  0.00    +0.000 HD
ATOM     16  H   UNL A   1      35.988 -34.768 -31.183  0.00  0.00    +0.000 HD
ENDBRANCH  12  14
ENDBRANCH   1  13
BRANCH   1  17
ATOM     17  S   UNL A   1      34.934 -36.282 -28.607  0.00  0.00    -0.151 S 
BRANCH  17  18
ATOM     18  C   UNL A   1      34.398 -37.728 -27.641  0.00  0.00    +0.019 C 
BRANCH  18  19
ATOM     19  C   UNL A   1      33.165 -37.423 -26.827  0.00  0.00    -0.037 A 
ATOM     20  C   UNL A   1      31.896 -37.506 -27.410  0.00  0.00    -0.058 A 
ATOM     21  C   UNL A   1      30.753 -37.249 -26.654  0.00  0.00    -0.061 A 
ATOM     22  C   UNL A   1      30.863 -36.913 -25.303  0.00  0.00    -0.056 A 
ATOM     23  C   UNL A   1      32.119 -36.823 -24.689  0.00  0.00    -0.010 A 
ATOM     24  C   UNL A   1      33.263 -37.085 -25.469  0.00  0.00    -0.052 A 
BRANCH  23  25
ATOM     25  C   UNL A   1      32.308 -36.510 -23.213  0.00  0.00    +0.175 C 
BRANCH  25  26
ATOM     26  C   UNL A   1      33.029 -37.573 -22.355  0.00  0.00    +0.420 C 
ATOM     27  F   UNL A   1      32.807 -38.828 -22.811  0.00  0.00    -0.168 F 
ATOM     28  F   UNL A   1      34.369 -37.374 -22.338  0.00  0.00    -0.168 F 
ATOM     29  F   UNL A   1      32.602 -37.538 -21.071  0.00  0.00    -0.168 F 
ENDBRANCH  25  26
BRANCH  25  30
ATOM     30  O   UNL A   1      32.971 -35.231 -23.148  0.00  0.00    -0.379 OA
ATOM     31  H   UNL A   1      33.449 -35.156 -22.307  0.00  0.00    +0.000 HD
ENDBRANCH  25  30
ENDBRANCH  23  25
ENDBRANCH  18  19
ENDBRANCH  17  18
ENDBRANCH   1  17
TORSDOF 8
ENDMDL
MODEL 18
REMARK VINA RESULT:    -6.672     17.172     18.999
REMARK INTER + INTRA:         -10.848
REMARK INTER:                  -9.262
REMARK INTRA:                  -1.586
REMARK UNBOUND:                -1.446
REMARK  Name = cpd235.pdb
REMARK  9 active torsions:
REMARK  status: ('A' for Active; 'I' for Inactive)
REMARK    1  A    between atoms: C_1  and  C_2
REMARK    2  A    between atoms: C_11  and  N_12
REMARK    3  A    between atoms: C_13  and  C_14
REMARK    4  A    between atoms: C_14  and  S_15
REMARK    5  A    between atoms: S_15  and  C_16
REMARK    6  A    between atoms: C_16  and  C_17
REMARK    7  A    between atoms: C_21  and  C_22
REMARK    8  A    between atoms: C_22  and  O_23
REMARK    9  A    between atoms: C_22  and  C_24
REMARK                            x       y       z     vdW  Elec       q    Type
REMARK                         _______ _______ _______ _____ _____    ______ ____
ROOT
ATOM      1  C   UNL A   1      45.771 -18.425 -37.548  0.00  0.00    +0.023 C 
ENDROOT
BRANCH   1  13
ATOM      2  C   UNL A   1      43.732 -17.523 -39.538  0.00  0.00    -0.022 C 
ATOM      3  C   UNL A   1      44.568 -18.752 -39.756  0.00  0.00    +0.045 A 
ATOM      4  N   UNL A   1      44.359 -19.376 -40.941  0.00  0.00    -0.251 NA
ATOM      5  C   UNL A   1      45.071 -20.469 -41.240  0.00  0.00    +0.076 A 
ATOM      6  C   UNL A   1      44.851 -21.064 -42.478  0.00  0.00    -0.035 A 
ATOM      7  C   UNL A   1      45.542 -22.206 -42.887  0.00  0.00    -0.057 A 
ATOM      8  C   UNL A   1      46.473 -22.774 -42.035  0.00  0.00    -0.026 A 
ATOM      9  C   UNL A   1      46.701 -22.190 -40.792  0.00  0.00    +0.134 A 
ATOM     10  F   UNL A   1      47.593 -22.786 -39.982  0.00  0.00    -0.205 F 
ATOM     11  C   UNL A   1      46.016 -21.027 -40.363  0.00  0.00    +0.056 A 
ATOM     12  C   UNL A   1      46.196 -20.393 -39.102  0.00  0.00    +0.042 A 
ATOM     13  C   UNL A   1      45.506 -19.196 -38.817  0.00  0.00    +0.005 A 
BRANCH  12  14
ATOM     14  N   UNL A   1      47.202 -20.844 -38.209  0.00  0.00    -0.357 N 
ATOM     15  H   UNL A   1      47.509 -21.778 -38.244  0.00  0.00    +0.000 HD
ATOM     16  H   UNL A   1      47.592 -20.222 -37.553  0.00  0.00    +0.000 HD
ENDBRANCH  12  14
ENDBRANCH   1  13
BRANCH   1  17
ATOM     17  S   UNL A   1      45.148 -19.302 -36.079  0.00  0.00    -0.151 S 
BRANCH  17  18
ATOM     18  C   UNL A   1      43.402 -18.799 -36.167  0.00  0.00    +0.019 C 
BRANCH  18  19
ATOM     19  C   UNL A   1      42.483 -19.994 -36.209  0.00  0.00    -0.037 A 
ATOM     20  C   UNL A   1      42.120 -20.647 -35.026  0.00  0.00    -0.058 A 
ATOM     21  C   UNL A   1      41.252 -21.737 -35.058  0.00  0.00    -0.061 A 
ATOM     22  C   UNL A   1      40.729 -22.185 -36.272  0.00  0.00    -0.056 A 
ATOM     23  C   UNL A   1      41.071 -21.553 -37.474  0.00  0.00    -0.010 A 
ATOM     24  C   UNL A   1      41.951 -20.454 -37.423  0.00  0.00    -0.052 A 
BRANCH  23  25
ATOM     25  C   UNL A   1      40.501 -21.958 -38.825  0.00  0.00    +0.175 C 
BRANCH  25  26
ATOM     26  C   UNL A   1      41.424 -21.802 -40.054  0.00  0.00    +0.420 C 
ATOM     27  F   UNL A   1      41.017 -22.567 -41.093  0.00  0.00    -0.168 F 
ATOM     28  F   UNL A   1      41.469 -20.517 -40.483  0.00  0.00    -0.168 F 
ATOM     29  F   UNL A   1      42.693 -22.172 -39.763  0.00  0.00    -0.168 F 
ENDBRANCH  25  26
BRANCH  25  30
ATOM     30  O   UNL A   1      40.027 -23.312 -38.680  0.00  0.00    -0.379 OA
ATOM     31  H   UNL A   1      40.203 -23.622 -37.778  0.00  0.00    +0.000 HD
ENDBRANCH  25  30
ENDBRANCH  23  25
ENDBRANCH  18  19
ENDBRANCH  17  18
ENDBRANCH   1  17
TORSDOF 8
ENDMDL
MODEL 19
REMARK VINA RESULT:    -6.613      5.431      6.682
REMARK INTER + INTRA:         -10.765
REMARK INTER:                  -9.936
REMARK INTRA:                  -0.829
REMARK UNBOUND:                -1.446
REMARK  Name = cpd235.pdb
REMARK  9 active torsions:
REMARK  status: ('A' for Active; 'I' for Inactive)
REMARK    1  A    between atoms: C_1  and  C_2
REMARK    2  A    between atoms: C_11  and  N_12
REMARK    3  A    between atoms: C_13  and  C_14
REMARK    4  A    between atoms: C_14  and  S_15
REMARK    5  A    between atoms: S_15  and  C_16
REMARK    6  A    between atoms: C_16  and  C_17
REMARK    7  A    between atoms: C_21  and  C_22
REMARK    8  A    between atoms: C_22  and  O_23
REMARK    9  A    between atoms: C_22  and  C_24
REMARK                            x       y       z     vdW  Elec       q    Type
REMARK                         _______ _______ _______ _____ _____    ______ ____
ROOT
ATOM      1  C   UNL A   1      35.038 -36.926 -27.718  0.00  0.00    +0.023 C 
ENDROOT
BRANCH   1  13
ATOM      2  C   UNL A   1      34.545 -34.889 -29.849  0.00  0.00    -0.022 C 
ATOM      3  C   UNL A   1      35.825 -35.672 -29.777  0.00  0.00    +0.045 A 
ATOM      4  N   UNL A   1      36.746 -35.340 -30.715  0.00  0.00    -0.251 NA
ATOM      5  C   UNL A   1      37.929 -35.965 -30.722  0.00  0.00    +0.076 A 
ATOM      6  C   UNL A   1      38.860 -35.576 -31.680  0.00  0.00    -0.035 A 
ATOM      7  C   UNL A   1      40.122 -36.164 -31.772  0.00  0.00    -0.057 A 
ATOM      8  C   UNL A   1      40.464 -37.172 -30.887  0.00  0.00    -0.026 A 
ATOM      9  C   UNL A   1      39.541 -37.573 -29.925  0.00  0.00    +0.134 A 
ATOM     10  F   UNL A   1      39.900 -38.573 -29.102  0.00  0.00    -0.205 F 
ATOM     11  C   UNL A   1      38.259 -36.983 -29.811  0.00  0.00    +0.056 A 
ATOM     12  C   UNL A   1      37.270 -37.358 -28.860  0.00  0.00    +0.042 A 
ATOM     13  C   UNL A   1      36.053 -36.647 -28.799  0.00  0.00    +0.005 A 
BRANCH  12  14
ATOM     14  N   UNL A   1      37.570 -38.308 -27.850  0.00  0.00    -0.357 N 
ATOM     15  H   UNL A   1      37.593 -39.268 -28.067  0.00  0.00    +0.000 HD
ATOM     16  H   UNL A   1      37.754 -38.008 -26.930  0.00  0.00    +0.000 HD
ENDBRANCH  12  14
ENDBRANCH   1  13
BRANCH   1  17
ATOM     17  S   UNL A   1      34.006 -38.372 -28.117  0.00  0.00    -0.151 S 
BRANCH  17  18
ATOM     18  C   UNL A   1      33.980 -39.163 -26.478  0.00  0.00    +0.019 C 
BRANCH  18  19
ATOM     19  C   UNL A   1      33.144 -38.379 -25.499  0.00  0.00    -0.037 A 
ATOM     20  C   UNL A   1      31.887 -37.892 -25.875  0.00  0.00    -0.058 A 
ATOM     21  C   UNL A   1      31.100 -37.188 -24.965  0.00  0.00    -0.061 A 
ATOM     22  C   UNL A   1      31.556 -36.967 -23.664  0.00  0.00    -0.056 A 
ATOM     23  C   UNL A   1      32.808 -37.441 -23.255  0.00  0.00    -0.010 A 
ATOM     24  C   UNL A   1      33.591 -38.150 -24.188  0.00  0.00    -0.052 A 
BRANCH  23  25
ATOM     25  C   UNL A   1      33.345 -37.279 -21.841  0.00  0.00    +0.175 C 
BRANCH  25  26
ATOM     26  C   UNL A   1      33.655 -38.570 -21.053  0.00  0.00    +0.420 C 
ATOM     27  F   UNL A   1      32.758 -39.550 -21.314  0.00  0.00    -0.168 F 
ATOM     28  F   UNL A   1      34.886 -39.052 -21.349  0.00  0.00    -0.168 F 
ATOM     29  F   UNL A   1      33.621 -38.349 -19.718  0.00  0.00    -0.168 F 
ENDBRANCH  25  26
BRANCH  25  30
ATOM     30  O   UNL A   1      34.501 -36.421 -21.939  0.00  0.00    -0.379 OA
ATOM     31  H   UNL A   1      35.307 -36.950 -21.826  0.00  0.00    +0.000 HD
ENDBRANCH  25  30
ENDBRANCH  23  25
ENDBRANCH  18  19
ENDBRANCH  17  18
ENDBRANCH   1  17
TORSDOF 8
ENDMDL
MODEL 20
REMARK VINA RESULT:    -6.562     16.121     18.173
REMARK INTER + INTRA:         -10.693
REMARK INTER:                  -9.874
REMARK INTRA:                  -0.820
REMARK UNBOUND:                -1.446
REMARK  Name = cpd235.pdb
REMARK  9 active torsions:
REMARK  status: ('A' for Active; 'I' for Inactive)
REMARK    1  A    between atoms: C_1  and  C_2
REMARK    2  A    between atoms: C_11  and  N_12
REMARK    3  A    between atoms: C_13  and  C_14
REMARK    4  A    between atoms: C_14  and  S_15
REMARK    5  A    between atoms: S_15  and  C_16
REMARK    6  A    between atoms: C_16  and  C_17
REMARK    7  A    between atoms: C_21  and  C_22
REMARK    8  A    between atoms: C_22  and  O_23
REMARK    9  A    between atoms: C_22  and  C_24
REMARK                            x       y       z     vdW  Elec       q    Type
REMARK                         _______ _______ _______ _____ _____    ______ ____
ROOT
ATOM      1  C   UNL A   1      44.171 -18.945 -38.330  0.00  0.00    +0.023 C 
ENDROOT
BRANCH   1  13
ATOM      2  C   UNL A   1      46.708 -19.656 -36.918  0.00  0.00    -0.022 C 
ATOM      3  C   UNL A   1      46.344 -20.250 -38.249  0.00  0.00    +0.045 A 
ATOM      4  N   UNL A   1      47.225 -21.165 -38.722  0.00  0.00    -0.251 NA
ATOM      5  C   UNL A   1      46.980 -21.769 -39.890  0.00  0.00    +0.076 A 
ATOM      6  C   UNL A   1      47.892 -22.725 -40.328  0.00  0.00    -0.035 A 
ATOM      7  C   UNL A   1      47.729 -23.412 -41.531  0.00  0.00    -0.057 A 
ATOM      8  C   UNL A   1      46.628 -23.134 -42.324  0.00  0.00    -0.026 A 
ATOM      9  C   UNL A   1      45.709 -22.178 -41.899  0.00  0.00    +0.134 A 
ATOM     10  F   UNL A   1      44.669 -21.918 -42.709  0.00  0.00    -0.205 F 
ATOM     11  C   UNL A   1      45.854 -21.477 -40.678  0.00  0.00    +0.056 A 
ATOM     12  C   UNL A   1      44.957 -20.482 -40.198  0.00  0.00    +0.042 A 
ATOM     13  C   UNL A   1      45.171 -19.903 -38.929  0.00  0.00    +0.005 A 
BRANCH  12  14
ATOM     14  N   UNL A   1      43.751 -20.208 -40.892  0.00  0.00    -0.357 N 
ATOM     15  H   UNL A   1      43.512 -19.279 -41.115  0.00  0.00    +0.000 HD
ATOM     16  H   UNL A   1      43.153 -20.946 -41.150  0.00  0.00    +0.000 HD
ENDBRANCH  12  14
ENDBRANCH   1  13
BRANCH   1  17
ATOM     17  S   UNL A   1      42.840 -19.820 -37.448  0.00  0.00    -0.151 S 
BRANCH  17  18
ATOM     18  C   UNL A   1      42.930 -18.944 -35.856  0.00  0.00    +0.019 C 
BRANCH  18  19
ATOM     19  C   UNL A   1      41.992 -19.546 -34.840  0.00  0.00    -0.037 A 
ATOM     20  C   UNL A   1      41.613 -18.815 -33.708  0.00  0.00    -0.058 A 
ATOM     21  C   UNL A   1      40.727 -19.359 -32.780  0.00  0.00    -0.061 A 
ATOM     22  C   UNL A   1      40.201 -20.637 -32.973  0.00  0.00    -0.056 A 
ATOM     23  C   UNL A   1      40.558 -21.395 -34.096  0.00  0.00    -0.010 A 
ATOM     24  C   UNL A   1      41.456 -20.830 -35.024  0.00  0.00    -0.052 A 
BRANCH  23  25
ATOM     25  C   UNL A   1      39.986 -22.772 -34.394  0.00  0.00    +0.175 C 
BRANCH  25  26
ATOM     26  C   UNL A   1      39.154 -22.925 -35.686  0.00  0.00    +0.420 C 
ATOM     27  F   UNL A   1      38.424 -21.817 -35.952  0.00  0.00    -0.168 F 
ATOM     28  F   UNL A   1      39.944 -23.163 -36.761  0.00  0.00    -0.168 F 
ATOM     29  F   UNL A   1      38.285 -23.958 -35.590  0.00  0.00    -0.168 F 
ENDBRANCH  25  26
BRANCH  25  30
ATOM     30  O   UNL A   1      41.097 -23.692 -34.360  0.00  0.00    -0.379 OA
ATOM     31  H   UNL A   1      41.074 -24.256 -35.148  0.00  0.00    +0.000 HD
ENDBRANCH  25  30
ENDBRANCH  23  25
ENDBRANCH  18  19
ENDBRANCH  17  18
ENDBRANCH   1  17
TORSDOF 8
ENDMDL
