REMARK  Name = cpd235.pdb
REMARK  9 active torsions:
REMARK  status: ('A' for Active; 'I' for Inactive)
REMARK    1  A    between atoms: C_1  and  C_2
REMARK    2  A    between atoms: C_11  and  N_12
REMARK    3  A    between atoms: C_13  and  C_14
REMARK    4  A    between atoms: C_14  and  S_15
REMARK    5  A    between atoms: S_15  and  C_16
REMARK    6  A    between atoms: C_16  and  C_17
REMARK    7  A    between atoms: C_21  and  C_22
REMARK    8  A    between atoms: C_22  and  O_23
REMARK    9  A    between atoms: C_22  and  C_24
REMARK                            x       y       z     vdW  Elec       q    Type
REMARK                         _______ _______ _______ _____ _____    ______ ____
ROOT
ATOM      1  C   UNL A   1      -2.541  -0.691   0.872  0.00  0.00    +0.023 C 
ENDROOT
BRANCH   1  13
ATOM      2  C   UNL A   1      -5.339  -1.740   0.800  0.00  0.00    -0.022 C 
ATOM      3  C   UNL A   1      -5.012  -0.319   0.439  0.00  0.00    +0.045 A 
ATOM      4  N   UNL A   1      -6.086   0.450   0.136  0.00  0.00    -0.251 NA
ATOM      5  C   UNL A   1      -5.903   1.738  -0.178  0.00  0.00    +0.076 A 
ATOM      6  C   UNL A   1      -7.032   2.503  -0.453  0.00  0.00    -0.035 A 
ATOM      7  C   UNL A   1      -6.950   3.855  -0.790  0.00  0.00    -0.057 A 
ATOM      8  C   UNL A   1      -5.706   4.459  -0.860  0.00  0.00    -0.026 A 
ATOM      9  C   UNL A   1      -4.568   3.704  -0.590  0.00  0.00    +0.134 A 
ATOM     10  F   UNL A   1      -3.378   4.320  -0.695  0.00  0.00    -0.205 F 
ATOM     11  C   UNL A   1      -4.632   2.334  -0.239  0.00  0.00    +0.056 A 
ATOM     12  C   UNL A   1      -3.506   1.509   0.035  0.00  0.00    +0.042 A 
ATOM     13  C   UNL A   1      -3.702   0.173   0.444  0.00  0.00    +0.005 A 
BRANCH  12  14
ATOM     14  N   UNL A   1      -2.203   2.067   0.088  0.00  0.00    -0.357 N 
ATOM     15  H   UNL A   1      -2.054   2.998  -0.195  0.00  0.00    +0.000 HD
ATOM     16  H   UNL A   1      -1.447   1.523   0.408  0.00  0.00    +0.000 HD
ENDBRANCH  12  14
ENDBRANCH   1  13
BRANCH   1  17
ATOM     17  S   UNL A   1      -1.754  -1.518  -0.546  0.00  0.00    -0.151 S 
BRANCH  17  18
ATOM     18  C   UNL A   1      -0.277  -2.173   0.291  0.00  0.00    +0.019 C 
BRANCH  18  19
ATOM     19  C   UNL A   1       0.968  -1.428  -0.121  0.00  0.00    -0.037 A 
ATOM     20  C   UNL A   1       1.782  -1.925  -1.145  0.00  0.00    -0.058 A 
ATOM     21  C   UNL A   1       2.920  -1.227  -1.545  0.00  0.00    -0.061 A 
ATOM     22  C   UNL A   1       3.256  -0.018  -0.933  0.00  0.00    -0.056 A 
ATOM     23  C   UNL A   1       2.462   0.508   0.094  0.00  0.00    -0.010 A 
ATOM     24  C   UNL A   1       1.316  -0.212   0.487  0.00  0.00    -0.052 A 
BRANCH  23  25
ATOM     25  C   UNL A   1       2.742   1.841   0.770  0.00  0.00    +0.175 C 
BRANCH  25  26
ATOM     26  C   UNL A   1       4.158   2.434   0.598  0.00  0.00    +0.420 C 
ATOM     27  F   UNL A   1       5.122   1.555   0.958  0.00  0.00    -0.168 F 
ATOM     28  F   UNL A   1       4.393   2.798  -0.686  0.00  0.00    -0.168 F 
ATOM     29  F   UNL A   1       4.323   3.538   1.364  0.00  0.00    -0.168 F 
ENDBRANCH  25  26
BRANCH  25  30
ATOM     30  O   UNL A   1       1.721   2.753   0.315  0.00  0.00    -0.379 OA
ATOM     31  H   UNL A   1       1.795   2.869  -0.645  0.00  0.00    +0.000 HD
ENDBRANCH  25  30
ENDBRANCH  23  25
ENDBRANCH  18  19
ENDBRANCH  17  18
ENDBRANCH   1  17
TORSDOF 8
