REMARK  Name = cpd362.pdb
REMARK  4 active torsions:
REMARK  status: ('A' for Active; 'I' for Inactive)
REMARK    1  A    between atoms: C_7  and  C_8
REMARK    2  A    between atoms: C_8  and  N_9
REMARK    3  A    between atoms: C_12  and  C_13
REMARK    4  A    between atoms: C_13  and  N_14
REMARK                            x       y       z     vdW  Elec       q    Type
REMARK                         _______ _______ _______ _____ _____    ______ ____
ROOT
ATOM      1  N   UNL A   1      -4.450   3.689  -0.518  0.00  0.00    -0.349 N 
ATOM      2  C   UNL A   1      -4.252   3.830   0.813  0.00  0.00    +0.005 A 
ATOM      3  C   UNL A   1      -3.274   3.089   1.470  0.00  0.00    -0.041 A 
ATOM      4  C   UNL A   1      -2.489   2.181   0.757  0.00  0.00    -0.025 A 
ATOM      5  C   UNL A   1      -2.692   2.083  -0.623  0.00  0.00    -0.041 A 
ATOM      6  C   UNL A   1      -3.686   2.837  -1.238  0.00  0.00    +0.005 A 
ENDROOT
BRANCH   1   7
ATOM      7  C   UNL A   1      -5.519   4.470  -1.189  0.00  0.00    +0.050 C 
BRANCH   7  14
ATOM      8  F   UNL A   1      -6.353   2.149  -2.503  0.00  0.00    -0.205 F 
ATOM      9  C   UNL A   1      -7.220   2.685  -1.633  0.00  0.00    +0.128 A 
ATOM     10  C   UNL A   1      -8.446   2.065  -1.428  0.00  0.00    -0.026 A 
ATOM     11  C   UNL A   1      -9.349   2.619  -0.523  0.00  0.00    -0.059 A 
ATOM     12  C   UNL A   1      -9.018   3.787   0.165  0.00  0.00    -0.061 A 
ATOM     13  C   UNL A   1      -7.782   4.405  -0.045  0.00  0.00    -0.054 A 
ATOM     14  C   UNL A   1      -6.866   3.853  -0.950  0.00  0.00    +0.007 A 
ENDBRANCH   7  14
ENDBRANCH   1   7
BRANCH   4  15
ATOM     15  C   UNL A   1      -1.440   1.353   1.476  0.00  0.00    +0.049 C 
BRANCH  15  16
ATOM     16  N   UNL A   1      -1.413  -0.031   1.012  0.00  0.00    -0.339 N 
ATOM     17  C   UNL A   1      -0.421  -0.605   0.255  0.00  0.00    +0.023 A 
ATOM     18  C   UNL A   1      -0.772  -1.918   0.011  0.00  0.00    -0.019 A 
ATOM     19  C   UNL A   1      -2.028  -2.154   0.632  0.00  0.00    +0.003 A 
ATOM     20  C   UNL A   1      -2.877  -3.275   0.720  0.00  0.00    -0.052 A 
ATOM     21  C   UNL A   1      -4.071  -3.185   1.442  0.00  0.00    -0.061 A 
ATOM     22  C   UNL A   1      -4.424  -1.999   2.076  0.00  0.00    -0.060 A 
ATOM     23  C   UNL A   1      -3.600  -0.871   2.004  0.00  0.00    -0.038 A 
ATOM     24  C   UNL A   1      -2.405  -0.967   1.270  0.00  0.00    +0.050 A 
ATOM     25  C   UNL A   1       0.081  -2.851  -0.784  0.00  0.00    -0.025 C 
ATOM     26  C   UNL A   1       1.518  -2.315  -0.910  0.00  0.00    -0.049 C 
ATOM     27  C   UNL A   1       1.542  -0.819  -1.263  0.00  0.00    -0.047 C 
ATOM     28  C   UNL A   1       0.850   0.043  -0.191  0.00  0.00    -0.012 C 
ENDBRANCH  15  16
ENDBRANCH   4  15
TORSDOF 4
