MODEL 1
REMARK VINA RESULT:    -8.684      0.000      0.000
REMARK INTER + INTRA:         -11.359
REMARK INTER:                 -10.715
REMARK INTRA:                  -0.644
REMARK UNBOUND:                -0.644
REMARK  Name = cpd362.pdb
REMARK  4 active torsions:
REMARK  status: ('A' for Active; 'I' for Inactive)
REMARK    1  A    between atoms: C_7  and  C_8
REMARK    2  A    between atoms: C_8  and  N_9
REMARK    3  A    between atoms: C_12  and  C_13
REMARK    4  A    between atoms: C_13  and  N_14
REMARK                            x       y       z     vdW  Elec       q    Type
REMARK                         _______ _______ _______ _____ _____    ______ ____
ROOT
ATOM      1  N   UNL A   1      38.371 -37.803 -29.167  0.00  0.00    -0.349 N 
ATOM      2  C   UNL A   1      37.651 -37.567 -28.045  0.00  0.00    +0.005 A 
ATOM      3  C   UNL A   1      36.274 -37.376 -28.110  0.00  0.00    -0.041 A 
ATOM      4  C   UNL A   1      35.621 -37.417 -29.343  0.00  0.00    -0.025 A 
ATOM      5  C   UNL A   1      36.385 -37.698 -30.480  0.00  0.00    -0.041 A 
ATOM      6  C   UNL A   1      37.760 -37.875 -30.371  0.00  0.00    +0.005 A 
ENDROOT
BRANCH   1   7
ATOM      7  C   UNL A   1      39.842 -37.975 -29.073  0.00  0.00    +0.050 C 
BRANCH   7  14
ATOM      8  F   UNL A   1      42.096 -39.100 -30.282  0.00  0.00    -0.205 F 
ATOM      9  C   UNL A   1      41.653 -37.949 -30.805  0.00  0.00    +0.128 A 
ATOM     10  C   UNL A   1      42.312 -37.402 -31.898  0.00  0.00    -0.026 A 
ATOM     11  C   UNL A   1      41.853 -36.205 -32.444  0.00  0.00    -0.059 A 
ATOM     12  C   UNL A   1      40.742 -35.568 -31.891  0.00  0.00    -0.061 A 
ATOM     13  C   UNL A   1      40.082 -36.125 -30.792  0.00  0.00    -0.054 A 
ATOM     14  C   UNL A   1      40.534 -37.330 -30.238  0.00  0.00    +0.007 A 
ENDBRANCH   7  14
ENDBRANCH   1   7
BRANCH   4  15
ATOM     15  C   UNL A   1      34.123 -37.182 -29.419  0.00  0.00    +0.049 C 
BRANCH  15  16
ATOM     16  N   UNL A   1      33.759 -36.275 -30.503  0.00  0.00    -0.339 N 
ATOM     17  C   UNL A   1      33.912 -34.910 -30.493  0.00  0.00    +0.023 A 
ATOM     18  C   UNL A   1      33.435 -34.415 -31.691  0.00  0.00    -0.019 A 
ATOM     19  C   UNL A   1      32.965 -35.514 -32.458  0.00  0.00    +0.003 A 
ATOM     20  C   UNL A   1      32.373 -35.633 -33.731  0.00  0.00    -0.052 A 
ATOM     21  C   UNL A   1      32.031 -36.897 -34.221  0.00  0.00    -0.061 A 
ATOM     22  C   UNL A   1      32.273 -38.037 -33.462  0.00  0.00    -0.060 A 
ATOM     23  C   UNL A   1      32.858 -37.947 -32.195  0.00  0.00    -0.038 A 
ATOM     24  C   UNL A   1      33.193 -36.673 -31.706  0.00  0.00    +0.050 A 
ATOM     25  C   UNL A   1      33.448 -32.961 -32.030  0.00  0.00    -0.025 C 
ATOM     26  C   UNL A   1      34.407 -32.186 -31.109  0.00  0.00    -0.049 C 
ATOM     27  C   UNL A   1      34.240 -32.594 -29.636  0.00  0.00    -0.047 C 
ATOM     28  C   UNL A   1      34.534 -34.089 -29.409  0.00  0.00    -0.012 C 
ENDBRANCH  15  16
ENDBRANCH   4  15
TORSDOF 4
ENDMDL
MODEL 2
REMARK VINA RESULT:    -8.585      3.420      8.309
REMARK INTER + INTRA:         -11.236
REMARK INTER:                 -10.920
REMARK INTRA:                  -0.316
REMARK UNBOUND:                -0.644
REMARK  Name = cpd362.pdb
REMARK  4 active torsions:
REMARK  status: ('A' for Active; 'I' for Inactive)
REMARK    1  A    between atoms: C_7  and  C_8
REMARK    2  A    between atoms: C_8  and  N_9
REMARK    3  A    between atoms: C_12  and  C_13
REMARK    4  A    between atoms: C_13  and  N_14
REMARK                            x       y       z     vdW  Elec       q    Type
REMARK                         _______ _______ _______ _____ _____    ______ ____
ROOT
ATOM      1  N   UNL A   1      33.071 -33.464 -29.596  0.00  0.00    -0.349 N 
ATOM      2  C   UNL A   1      32.715 -34.604 -30.232  0.00  0.00    +0.005 A 
ATOM      3  C   UNL A   1      33.637 -35.310 -30.998  0.00  0.00    -0.041 A 
ATOM      4  C   UNL A   1      34.945 -34.840 -31.125  0.00  0.00    -0.025 A 
ATOM      5  C   UNL A   1      35.294 -33.680 -30.428  0.00  0.00    -0.041 A 
ATOM      6  C   UNL A   1      34.338 -33.001 -29.679  0.00  0.00    +0.005 A 
ENDROOT
BRANCH   1   7
ATOM      7  C   UNL A   1      32.060 -32.715 -28.809  0.00  0.00    +0.050 C 
BRANCH   7  14
ATOM      8  F   UNL A   1      32.383 -30.354 -30.268  0.00  0.00    -0.205 F 
ATOM      9  C   UNL A   1      31.210 -30.986 -30.410  0.00  0.00    +0.128 A 
ATOM     10  C   UNL A   1      30.251 -30.455 -31.264  0.00  0.00    -0.026 A 
ATOM     11  C   UNL A   1      29.031 -31.111 -31.415  0.00  0.00    -0.059 A 
ATOM     12  C   UNL A   1      28.782 -32.289 -30.710  0.00  0.00    -0.061 A 
ATOM     13  C   UNL A   1      29.752 -32.819 -29.854  0.00  0.00    -0.054 A 
ATOM     14  C   UNL A   1      30.983 -32.169 -29.699  0.00  0.00    +0.007 A 
ENDBRANCH   7  14
ENDBRANCH   1   7
BRANCH   4  15
ATOM     15  C   UNL A   1      35.945 -35.595 -31.982  0.00  0.00    +0.049 C 
BRANCH  15  16
ATOM     16  N   UNL A   1      37.057 -36.126 -31.198  0.00  0.00    -0.339 N 
ATOM     17  C   UNL A   1      38.378 -36.121 -31.572  0.00  0.00    +0.023 A 
ATOM     18  C   UNL A   1      39.111 -36.727 -30.571  0.00  0.00    -0.019 A 
ATOM     19  C   UNL A   1      38.205 -37.126 -29.551  0.00  0.00    +0.003 A 
ATOM     20  C   UNL A   1      38.357 -37.784 -28.315  0.00  0.00    -0.052 A 
ATOM     21  C   UNL A   1      37.236 -38.019 -27.513  0.00  0.00    -0.061 A 
ATOM     22  C   UNL A   1      35.974 -37.605 -27.925  0.00  0.00    -0.060 A 
ATOM     23  C   UNL A   1      35.795 -36.951 -29.148  0.00  0.00    -0.038 A 
ATOM     24  C   UNL A   1      36.926 -36.725 -29.952  0.00  0.00    +0.050 A 
ATOM     25  C   UNL A   1      40.593 -36.895 -30.638  0.00  0.00    -0.025 C 
ATOM     26  C   UNL A   1      41.207 -35.966 -31.701  0.00  0.00    -0.049 C 
ATOM     27  C   UNL A   1      40.406 -35.989 -33.013  0.00  0.00    -0.047 C 
ATOM     28  C   UNL A   1      38.952 -35.522 -32.815  0.00  0.00    -0.012 C 
ENDBRANCH  15  16
ENDBRANCH   4  15
TORSDOF 4
ENDMDL
MODEL 3
REMARK VINA RESULT:    -8.483     15.947     18.436
REMARK INTER + INTRA:         -11.111
REMARK INTER:                 -10.220
REMARK INTRA:                  -0.891
REMARK UNBOUND:                -0.644
REMARK  Name = cpd362.pdb
REMARK  4 active torsions:
REMARK  status: ('A' for Active; 'I' for Inactive)
REMARK    1  A    between atoms: C_7  and  C_8
REMARK    2  A    between atoms: C_8  and  N_9
REMARK    3  A    between atoms: C_12  and  C_13
REMARK    4  A    between atoms: C_13  and  N_14
REMARK                            x       y       z     vdW  Elec       q    Type
REMARK                         _______ _______ _______ _____ _____    ______ ____
ROOT
ATOM      1  N   UNL A   1      43.938 -20.912 -40.408  0.00  0.00    -0.349 N 
ATOM      2  C   UNL A   1      42.973 -21.328 -41.260  0.00  0.00    +0.005 A 
ATOM      3  C   UNL A   1      41.769 -21.834 -40.780  0.00  0.00    -0.041 A 
ATOM      4  C   UNL A   1      41.548 -21.924 -39.404  0.00  0.00    -0.025 A 
ATOM      5  C   UNL A   1      42.549 -21.453 -38.549  0.00  0.00    -0.041 A 
ATOM      6  C   UNL A   1      43.741 -20.963 -39.072  0.00  0.00    +0.005 A 
ENDROOT
BRANCH   1   7
ATOM      7  C   UNL A   1      45.225 -20.403 -40.946  0.00  0.00    +0.050 C 
BRANCH   7  14
ATOM      8  F   UNL A   1      45.273 -22.067 -43.191  0.00  0.00    -0.205 F 
ATOM      9  C   UNL A   1      46.198 -22.308 -42.251  0.00  0.00    +0.128 A 
ATOM     10  C   UNL A   1      47.114 -23.334 -42.448  0.00  0.00    -0.026 A 
ATOM     11  C   UNL A   1      48.077 -23.585 -41.473  0.00  0.00    -0.059 A 
ATOM     12  C   UNL A   1      48.114 -22.811 -40.313  0.00  0.00    -0.061 A 
ATOM     13  C   UNL A   1      47.191 -21.779 -40.123  0.00  0.00    -0.054 A 
ATOM     14  C   UNL A   1      46.221 -21.516 -41.099  0.00  0.00    +0.007 A 
ENDBRANCH   7  14
ENDBRANCH   1   7
BRANCH   4  15
ATOM     15  C   UNL A   1      40.246 -22.500 -38.878  0.00  0.00    +0.049 C 
BRANCH  15  16
ATOM     16  N   UNL A   1      39.575 -21.594 -37.951  0.00  0.00    -0.339 N 
ATOM     17  C   UNL A   1      39.323 -21.845 -36.624  0.00  0.00    +0.023 A 
ATOM     18  C   UNL A   1      38.659 -20.755 -36.099  0.00  0.00    -0.019 A 
ATOM     19  C   UNL A   1      38.490 -19.806 -37.143  0.00  0.00    +0.003 A 
ATOM     20  C   UNL A   1      37.892 -18.532 -37.215  0.00  0.00    -0.052 A 
ATOM     21  C   UNL A   1      37.909 -17.826 -38.422  0.00  0.00    -0.061 A 
ATOM     22  C   UNL A   1      38.514 -18.371 -39.549  0.00  0.00    -0.060 A 
ATOM     23  C   UNL A   1      39.114 -19.633 -39.505  0.00  0.00    -0.038 A 
ATOM     24  C   UNL A   1      39.086 -20.340 -38.290  0.00  0.00    +0.050 A 
ATOM     25  C   UNL A   1      38.227 -20.678 -34.672  0.00  0.00    -0.025 C 
ATOM     26  C   UNL A   1      38.965 -21.721 -33.814  0.00  0.00    -0.049 C 
ATOM     27  C   UNL A   1      39.004 -23.099 -34.496  0.00  0.00    -0.047 C 
ATOM     28  C   UNL A   1      39.734 -23.057 -35.851  0.00  0.00    -0.012 C 
ENDBRANCH  15  16
ENDBRANCH   4  15
TORSDOF 4
ENDMDL
MODEL 4
REMARK VINA RESULT:    -8.376      3.371      8.377
REMARK INTER + INTRA:         -10.978
REMARK INTER:                 -10.062
REMARK INTRA:                  -0.916
REMARK UNBOUND:                -0.644
REMARK  Name = cpd362.pdb
REMARK  4 active torsions:
REMARK  status: ('A' for Active; 'I' for Inactive)
REMARK    1  A    between atoms: C_7  and  C_8
REMARK    2  A    between atoms: C_8  and  N_9
REMARK    3  A    between atoms: C_12  and  C_13
REMARK    4  A    between atoms: C_13  and  N_14
REMARK                            x       y       z     vdW  Elec       q    Type
REMARK                         _______ _______ _______ _____ _____    ______ ____
ROOT
ATOM      1  N   UNL A   1      33.165 -33.710 -29.529  0.00  0.00    -0.349 N 
ATOM      2  C   UNL A   1      32.789 -34.837 -30.177  0.00  0.00    +0.005 A 
ATOM      3  C   UNL A   1      33.698 -35.547 -30.956  0.00  0.00    -0.041 A 
ATOM      4  C   UNL A   1      35.013 -35.095 -31.082  0.00  0.00    -0.025 A 
ATOM      5  C   UNL A   1      35.381 -33.948 -30.373  0.00  0.00    -0.041 A 
ATOM      6  C   UNL A   1      34.438 -33.264 -29.612  0.00  0.00    +0.005 A 
ENDROOT
BRANCH   1   7
ATOM      7  C   UNL A   1      32.168 -32.956 -28.728  0.00  0.00    +0.050 C 
BRANCH   7  14
ATOM      8  F   UNL A   1      32.426 -30.713 -30.376  0.00  0.00    -0.205 F 
ATOM      9  C   UNL A   1      31.241 -31.339 -30.403  0.00  0.00    +0.128 A 
ATOM     10  C   UNL A   1      30.240 -30.860 -31.238  0.00  0.00    -0.026 A 
ATOM     11  C   UNL A   1      29.008 -31.509 -31.270  0.00  0.00    -0.059 A 
ATOM     12  C   UNL A   1      28.789 -32.629 -30.466  0.00  0.00    -0.061 A 
ATOM     13  C   UNL A   1      29.802 -33.107 -29.630  0.00  0.00    -0.054 A 
ATOM     14  C   UNL A   1      31.045 -32.463 -29.594  0.00  0.00    +0.007 A 
ENDBRANCH   7  14
ENDBRANCH   1   7
BRANCH   4  15
ATOM     15  C   UNL A   1      35.998 -35.853 -31.952  0.00  0.00    +0.049 C 
BRANCH  15  16
ATOM     16  N   UNL A   1      37.096 -36.423 -31.177  0.00  0.00    -0.339 N 
ATOM     17  C   UNL A   1      36.978 -37.392 -30.210  0.00  0.00    +0.023 A 
ATOM     18  C   UNL A   1      38.237 -37.648 -29.702  0.00  0.00    -0.019 A 
ATOM     19  C   UNL A   1      39.157 -36.799 -30.375  0.00  0.00    +0.003 A 
ATOM     20  C   UNL A   1      40.549 -36.604 -30.284  0.00  0.00    -0.052 A 
ATOM     21  C   UNL A   1      41.176 -35.679 -31.125  0.00  0.00    -0.061 A 
ATOM     22  C   UNL A   1      40.435 -34.953 -32.051  0.00  0.00    -0.060 A 
ATOM     23  C   UNL A   1      39.051 -35.127 -32.162  0.00  0.00    -0.038 A 
ATOM     24  C   UNL A   1      38.428 -36.054 -31.308  0.00  0.00    +0.050 A 
ATOM     25  C   UNL A   1      38.489 -38.655 -28.629  0.00  0.00    -0.025 C 
ATOM     26  C   UNL A   1      37.299 -39.620 -28.486  0.00  0.00    -0.049 C 
ATOM     27  C   UNL A   1      35.954 -38.876 -28.492  0.00  0.00    -0.047 C 
ATOM     28  C   UNL A   1      35.726 -38.097 -29.801  0.00  0.00    -0.012 C 
ENDBRANCH  15  16
ENDBRANCH   4  15
TORSDOF 4
ENDMDL
MODEL 5
REMARK VINA RESULT:    -7.877      1.057      3.288
REMARK INTER + INTRA:         -10.363
REMARK INTER:                  -9.401
REMARK INTRA:                  -0.961
REMARK UNBOUND:                -0.644
REMARK  Name = cpd362.pdb
REMARK  4 active torsions:
REMARK  status: ('A' for Active; 'I' for Inactive)
REMARK    1  A    between atoms: C_7  and  C_8
REMARK    2  A    between atoms: C_8  and  N_9
REMARK    3  A    between atoms: C_12  and  C_13
REMARK    4  A    between atoms: C_13  and  N_14
REMARK                            x       y       z     vdW  Elec       q    Type
REMARK                         _______ _______ _______ _____ _____    ______ ____
ROOT
ATOM      1  N   UNL A   1      37.136 -38.284 -28.588  0.00  0.00    -0.349 N 
ATOM      2  C   UNL A   1      36.683 -37.198 -27.921  0.00  0.00    +0.005 A 
ATOM      3  C   UNL A   1      35.358 -36.788 -28.044  0.00  0.00    -0.041 A 
ATOM      4  C   UNL A   1      34.482 -37.496 -28.870  0.00  0.00    -0.025 A 
ATOM      5  C   UNL A   1      34.970 -38.635 -29.518  0.00  0.00    -0.041 A 
ATOM      6  C   UNL A   1      36.303 -39.004 -29.373  0.00  0.00    +0.005 A 
ENDROOT
BRANCH   1   7
ATOM      7  C   UNL A   1      38.561 -38.682 -28.462  0.00  0.00    +0.050 C 
BRANCH   7  14
ATOM      8  F   UNL A   1      41.342 -38.949 -28.523  0.00  0.00    -0.205 F 
ATOM      9  C   UNL A   1      40.804 -38.113 -29.421  0.00  0.00    +0.128 A 
ATOM     10  C   UNL A   1      41.636 -37.455 -30.318  0.00  0.00    -0.026 A 
ATOM     11  C   UNL A   1      41.080 -36.586 -31.255  0.00  0.00    -0.059 A 
ATOM     12  C   UNL A   1      39.699 -36.383 -31.283  0.00  0.00    -0.061 A 
ATOM     13  C   UNL A   1      38.868 -37.050 -30.379  0.00  0.00    -0.054 A 
ATOM     14  C   UNL A   1      39.418 -37.928 -29.436  0.00  0.00    +0.007 A 
ENDBRANCH   7  14
ENDBRANCH   1   7
BRANCH   4  15
ATOM     15  C   UNL A   1      33.045 -37.036 -29.025  0.00  0.00    +0.049 C 
BRANCH  15  16
ATOM     16  N   UNL A   1      32.840 -36.261 -30.246  0.00  0.00    -0.339 N 
ATOM     17  C   UNL A   1      32.386 -36.755 -31.444  0.00  0.00    +0.023 A 
ATOM     18  C   UNL A   1      32.346 -35.714 -32.351  0.00  0.00    -0.019 A 
ATOM     19  C   UNL A   1      32.802 -34.543 -31.687  0.00  0.00    +0.003 A 
ATOM     20  C   UNL A   1      32.987 -33.205 -32.088  0.00  0.00    -0.052 A 
ATOM     21  C   UNL A   1      33.446 -32.262 -31.163  0.00  0.00    -0.061 A 
ATOM     22  C   UNL A   1      33.717 -32.635 -29.851  0.00  0.00    -0.060 A 
ATOM     23  C   UNL A   1      33.543 -33.957 -29.428  0.00  0.00    -0.038 A 
ATOM     24  C   UNL A   1      33.088 -34.900 -30.365  0.00  0.00    +0.050 A 
ATOM     25  C   UNL A   1      31.895 -35.887 -33.764  0.00  0.00    -0.025 C 
ATOM     26  C   UNL A   1      31.111 -37.199 -33.938  0.00  0.00    -0.049 C 
ATOM     27  C   UNL A   1      31.809 -38.379 -33.242  0.00  0.00    -0.047 C 
ATOM     28  C   UNL A   1      31.953 -38.158 -31.725  0.00  0.00    -0.012 C 
ENDBRANCH  15  16
ENDBRANCH   4  15
TORSDOF 4
ENDMDL
MODEL 6
REMARK VINA RESULT:    -7.877     15.649     18.187
REMARK INTER + INTRA:         -10.362
REMARK INTER:                  -9.294
REMARK INTRA:                  -1.068
REMARK UNBOUND:                -0.644
REMARK  Name = cpd362.pdb
REMARK  4 active torsions:
REMARK  status: ('A' for Active; 'I' for Inactive)
REMARK    1  A    between atoms: C_7  and  C_8
REMARK    2  A    between atoms: C_8  and  N_9
REMARK    3  A    between atoms: C_12  and  C_13
REMARK    4  A    between atoms: C_13  and  N_14
REMARK                            x       y       z     vdW  Elec       q    Type
REMARK                         _______ _______ _______ _____ _____    ______ ____
ROOT
ATOM      1  N   UNL A   1      43.803 -20.812 -39.841  0.00  0.00    -0.349 N 
ATOM      2  C   UNL A   1      42.775 -21.321 -40.559  0.00  0.00    +0.005 A 
ATOM      3  C   UNL A   1      41.642 -21.822 -39.925  0.00  0.00    -0.041 A 
ATOM      4  C   UNL A   1      41.560 -21.810 -38.531  0.00  0.00    -0.025 A 
ATOM      5  C   UNL A   1      42.621 -21.245 -37.817  0.00  0.00    -0.041 A 
ATOM      6  C   UNL A   1      43.738 -20.763 -38.492  0.00  0.00    +0.005 A 
ENDROOT
BRANCH   1   7
ATOM      7  C   UNL A   1      45.012 -20.311 -40.542  0.00  0.00    +0.050 C 
BRANCH   7  14
ATOM      8  F   UNL A   1      46.970 -21.452 -38.906  0.00  0.00    -0.205 F 
ATOM      9  C   UNL A   1      46.833 -21.981 -40.129  0.00  0.00    +0.128 A 
ATOM     10  C   UNL A   1      47.642 -23.048 -40.501  0.00  0.00    -0.026 A 
ATOM     11  C   UNL A   1      47.501 -23.602 -41.771  0.00  0.00    -0.059 A 
ATOM     12  C   UNL A   1      46.557 -23.082 -42.658  0.00  0.00    -0.061 A 
ATOM     13  C   UNL A   1      45.746 -22.009 -42.277  0.00  0.00    -0.054 A 
ATOM     14  C   UNL A   1      45.877 -21.448 -41.000  0.00  0.00    +0.007 A 
ENDBRANCH   7  14
ENDBRANCH   1   7
BRANCH   4  15
ATOM     15  C   UNL A   1      40.337 -22.380 -37.836  0.00  0.00    +0.049 C 
BRANCH  15  16
ATOM     16  N   UNL A   1      39.862 -21.519 -36.757  0.00  0.00    -0.339 N 
ATOM     17  C   UNL A   1      39.219 -20.315 -36.914  0.00  0.00    +0.023 A 
ATOM     18  C   UNL A   1      38.949 -19.805 -35.659  0.00  0.00    -0.019 A 
ATOM     19  C   UNL A   1      39.454 -20.724 -34.700  0.00  0.00    +0.003 A 
ATOM     20  C   UNL A   1      39.483 -20.746 -33.291  0.00  0.00    -0.052 A 
ATOM     21  C   UNL A   1      40.053 -21.836 -32.627  0.00  0.00    -0.061 A 
ATOM     22  C   UNL A   1      40.588 -22.899 -33.346  0.00  0.00    -0.060 A 
ATOM     23  C   UNL A   1      40.573 -22.903 -34.744  0.00  0.00    -0.038 A 
ATOM     24  C   UNL A   1      40.004 -21.800 -35.405  0.00  0.00    +0.050 A 
ATOM     25  C   UNL A   1      38.250 -18.503 -35.446  0.00  0.00    -0.025 C 
ATOM     26  C   UNL A   1      37.524 -18.049 -36.725  0.00  0.00    -0.049 C 
ATOM     27  C   UNL A   1      38.407 -18.212 -37.972  0.00  0.00    -0.047 C 
ATOM     28  C   UNL A   1      38.821 -19.677 -38.205  0.00  0.00    -0.012 C 
ENDBRANCH  15  16
ENDBRANCH   4  15
TORSDOF 4
ENDMDL
MODEL 7
REMARK VINA RESULT:    -7.776     16.977     19.950
REMARK INTER + INTRA:         -10.238
REMARK INTER:                  -9.222
REMARK INTRA:                  -1.016
REMARK UNBOUND:                -0.644
REMARK  Name = cpd362.pdb
REMARK  4 active torsions:
REMARK  status: ('A' for Active; 'I' for Inactive)
REMARK    1  A    between atoms: C_7  and  C_8
REMARK    2  A    between atoms: C_8  and  N_9
REMARK    3  A    between atoms: C_12  and  C_13
REMARK    4  A    between atoms: C_13  and  N_14
REMARK                            x       y       z     vdW  Elec       q    Type
REMARK                         _______ _______ _______ _____ _____    ______ ____
ROOT
ATOM      1  N   UNL A   1      41.934 -20.046 -35.378  0.00  0.00    -0.349 N 
ATOM      2  C   UNL A   1      41.997 -20.842 -36.470  0.00  0.00    +0.005 A 
ATOM      3  C   UNL A   1      43.136 -20.865 -37.270  0.00  0.00    -0.041 A 
ATOM      4  C   UNL A   1      44.228 -20.054 -36.953  0.00  0.00    -0.025 A 
ATOM      5  C   UNL A   1      44.148 -19.270 -35.799  0.00  0.00    -0.041 A 
ATOM      6  C   UNL A   1      42.987 -19.271 -35.032  0.00  0.00    +0.005 A 
ENDROOT
BRANCH   1   7
ATOM      7  C   UNL A   1      40.697 -20.019 -34.559  0.00  0.00    +0.050 C 
BRANCH   7  14
ATOM      8  F   UNL A   1      38.620 -21.771 -35.212  0.00  0.00    -0.205 F 
ATOM      9  C   UNL A   1      39.441 -22.161 -34.227  0.00  0.00    +0.128 A 
ATOM     10  C   UNL A   1      39.228 -23.389 -33.613  0.00  0.00    -0.026 A 
ATOM     11  C   UNL A   1      40.080 -23.799 -32.591  0.00  0.00    -0.059 A 
ATOM     12  C   UNL A   1      41.135 -22.976 -32.191  0.00  0.00    -0.061 A 
ATOM     13  C   UNL A   1      41.344 -21.743 -32.814  0.00  0.00    -0.054 A 
ATOM     14  C   UNL A   1      40.495 -21.324 -33.847  0.00  0.00    +0.007 A 
ENDBRANCH   7  14
ENDBRANCH   1   7
BRANCH   4  15
ATOM     15  C   UNL A   1      45.461 -20.058 -37.838  0.00  0.00    +0.049 C 
BRANCH  15  16
ATOM     16  N   UNL A   1      45.149 -19.724 -39.224  0.00  0.00    -0.339 N 
ATOM     17  C   UNL A   1      45.325 -20.548 -40.309  0.00  0.00    +0.023 A 
ATOM     18  C   UNL A   1      44.929 -19.861 -41.439  0.00  0.00    -0.019 A 
ATOM     19  C   UNL A   1      44.504 -18.567 -41.035  0.00  0.00    +0.003 A 
ATOM     20  C   UNL A   1      44.011 -17.442 -41.725  0.00  0.00    -0.052 A 
ATOM     21  C   UNL A   1      43.654 -16.293 -41.012  0.00  0.00    -0.061 A 
ATOM     22  C   UNL A   1      43.779 -16.255 -39.628  0.00  0.00    -0.060 A 
ATOM     23  C   UNL A   1      44.267 -17.357 -38.918  0.00  0.00    -0.038 A 
ATOM     24  C   UNL A   1      44.630 -18.506 -39.642  0.00  0.00    +0.050 A 
ATOM     25  C   UNL A   1      44.980 -20.455 -42.809  0.00  0.00    -0.025 C 
ATOM     26  C   UNL A   1      45.108 -21.987 -42.742  0.00  0.00    -0.049 C 
ATOM     27  C   UNL A   1      46.158 -22.430 -41.711  0.00  0.00    -0.047 C 
ATOM     28  C   UNL A   1      45.808 -21.962 -40.286  0.00  0.00    -0.012 C 
ENDBRANCH  15  16
ENDBRANCH   4  15
TORSDOF 4
ENDMDL
MODEL 8
REMARK VINA RESULT:    -7.707     16.221     19.393
REMARK INTER + INTRA:         -10.154
REMARK INTER:                  -9.073
REMARK INTRA:                  -1.081
REMARK UNBOUND:                -0.644
REMARK  Name = cpd362.pdb
REMARK  4 active torsions:
REMARK  status: ('A' for Active; 'I' for Inactive)
REMARK    1  A    between atoms: C_7  and  C_8
REMARK    2  A    between atoms: C_8  and  N_9
REMARK    3  A    between atoms: C_12  and  C_13
REMARK    4  A    between atoms: C_13  and  N_14
REMARK                            x       y       z     vdW  Elec       q    Type
REMARK                         _______ _______ _______ _____ _____    ______ ____
ROOT
ATOM      1  N   UNL A   1      40.261 -21.411 -37.674  0.00  0.00    -0.349 N 
ATOM      2  C   UNL A   1      40.221 -20.149 -38.160  0.00  0.00    +0.005 A 
ATOM      3  C   UNL A   1      41.205 -19.690 -39.031  0.00  0.00    -0.041 A 
ATOM      4  C   UNL A   1      42.252 -20.533 -39.408  0.00  0.00    -0.025 A 
ATOM      5  C   UNL A   1      42.247 -21.842 -38.918  0.00  0.00    -0.041 A 
ATOM      6  C   UNL A   1      41.249 -22.257 -38.043  0.00  0.00    +0.005 A 
ENDROOT
BRANCH   1   7
ATOM      7  C   UNL A   1      39.216 -21.865 -36.723  0.00  0.00    +0.050 C 
BRANCH   7  14
ATOM      8  F   UNL A   1      38.487 -24.014 -35.092  0.00  0.00    -0.205 F 
ATOM      9  C   UNL A   1      39.387 -23.160 -34.585  0.00  0.00    +0.128 A 
ATOM     10  C   UNL A   1      39.905 -23.394 -33.318  0.00  0.00    -0.026 A 
ATOM     11  C   UNL A   1      40.843 -22.509 -32.789  0.00  0.00    -0.059 A 
ATOM     12  C   UNL A   1      41.251 -21.401 -33.532  0.00  0.00    -0.061 A 
ATOM     13  C   UNL A   1      40.727 -21.172 -34.807  0.00  0.00    -0.054 A 
ATOM     14  C   UNL A   1      39.787 -22.059 -35.349  0.00  0.00    +0.007 A 
ENDBRANCH   7  14
ENDBRANCH   1   7
BRANCH   4  15
ATOM     15  C   UNL A   1      43.340 -20.026 -40.337  0.00  0.00    +0.049 C 
BRANCH  15  16
ATOM     16  N   UNL A   1      44.674 -20.185 -39.767  0.00  0.00    -0.339 N 
ATOM     17  C   UNL A   1      45.213 -19.423 -38.760  0.00  0.00    +0.023 A 
ATOM     18  C   UNL A   1      46.496 -19.875 -38.518  0.00  0.00    -0.019 A 
ATOM     19  C   UNL A   1      46.755 -20.945 -39.416  0.00  0.00    +0.003 A 
ATOM     20  C   UNL A   1      47.868 -21.778 -39.645  0.00  0.00    -0.052 A 
ATOM     21  C   UNL A   1      47.796 -22.779 -40.619  0.00  0.00    -0.061 A 
ATOM     22  C   UNL A   1      46.634 -22.960 -41.359  0.00  0.00    -0.060 A 
ATOM     23  C   UNL A   1      45.514 -22.147 -41.153  0.00  0.00    -0.038 A 
ATOM     24  C   UNL A   1      45.597 -21.138 -40.178  0.00  0.00    +0.050 A 
ATOM     25  C   UNL A   1      47.384 -19.276 -37.478  0.00  0.00    -0.025 C 
ATOM     26  C   UNL A   1      46.573 -18.436 -36.475  0.00  0.00    -0.049 C 
ATOM     27  C   UNL A   1      45.555 -17.526 -37.183  0.00  0.00    -0.047 C 
ATOM     28  C   UNL A   1      44.530 -18.329 -38.005  0.00  0.00    -0.012 C 
ENDBRANCH  15  16
ENDBRANCH   4  15
TORSDOF 4
ENDMDL
MODEL 9
REMARK VINA RESULT:    -7.695      4.911      7.751
REMARK INTER + INTRA:         -10.138
REMARK INTER:                  -9.164
REMARK INTRA:                  -0.974
REMARK UNBOUND:                -0.644
REMARK  Name = cpd362.pdb
REMARK  4 active torsions:
REMARK  status: ('A' for Active; 'I' for Inactive)
REMARK    1  A    between atoms: C_7  and  C_8
REMARK    2  A    between atoms: C_8  and  N_9
REMARK    3  A    between atoms: C_12  and  C_13
REMARK    4  A    between atoms: C_13  and  N_14
REMARK                            x       y       z     vdW  Elec       q    Type
REMARK                         _______ _______ _______ _____ _____    ______ ____
ROOT
ATOM      1  N   UNL A   1      33.293 -36.897 -24.130  0.00  0.00    -0.349 N 
ATOM      2  C   UNL A   1      34.314 -37.626 -24.637  0.00  0.00    +0.005 A 
ATOM      3  C   UNL A   1      34.424 -37.841 -26.008  0.00  0.00    -0.041 A 
ATOM      4  C   UNL A   1      33.469 -37.311 -26.877  0.00  0.00    -0.025 A 
ATOM      5  C   UNL A   1      32.445 -36.532 -26.328  0.00  0.00    -0.041 A 
ATOM      6  C   UNL A   1      32.369 -36.348 -24.951  0.00  0.00    +0.005 A 
ENDROOT
BRANCH   1   7
ATOM      7  C   UNL A   1      33.183 -36.706 -22.662  0.00  0.00    +0.050 C 
BRANCH   7  14
ATOM      8  F   UNL A   1      35.232 -37.034 -20.790  0.00  0.00    -0.205 F 
ATOM      9  C   UNL A   1      34.443 -38.097 -21.002  0.00  0.00    +0.128 A 
ATOM     10  C   UNL A   1      34.673 -39.265 -20.287  0.00  0.00    -0.026 A 
ATOM     11  C   UNL A   1      33.853 -40.371 -20.504  0.00  0.00    -0.059 A 
ATOM     12  C   UNL A   1      32.816 -40.298 -21.434  0.00  0.00    -0.061 A 
ATOM     13  C   UNL A   1      32.589 -39.118 -22.149  0.00  0.00    -0.054 A 
ATOM     14  C   UNL A   1      33.405 -38.000 -21.934  0.00  0.00    +0.007 A 
ENDBRANCH   7  14
ENDBRANCH   1   7
BRANCH   4  15
ATOM     15  C   UNL A   1      33.572 -37.567 -28.369  0.00  0.00    +0.049 C 
BRANCH  15  16
ATOM     16  N   UNL A   1      34.586 -36.731 -29.006  0.00  0.00    -0.339 N 
ATOM     17  C   UNL A   1      34.386 -35.469 -29.508  0.00  0.00    +0.023 A 
ATOM     18  C   UNL A   1      35.581 -35.024 -30.040  0.00  0.00    -0.019 A 
ATOM     19  C   UNL A   1      36.543 -36.055 -29.866  0.00  0.00    +0.003 A 
ATOM     20  C   UNL A   1      37.905 -36.185 -30.205  0.00  0.00    -0.052 A 
ATOM     21  C   UNL A   1      38.594 -37.354 -29.868  0.00  0.00    -0.061 A 
ATOM     22  C   UNL A   1      37.947 -38.386 -29.198  0.00  0.00    -0.060 A 
ATOM     23  C   UNL A   1      36.596 -38.283 -28.851  0.00  0.00    -0.038 A 
ATOM     24  C   UNL A   1      35.907 -37.108 -29.199  0.00  0.00    +0.050 A 
ATOM     25  C   UNL A   1      35.736 -33.681 -30.674  0.00  0.00    -0.025 C 
ATOM     26  C   UNL A   1      34.577 -32.747 -30.283  0.00  0.00    -0.049 C 
ATOM     27  C   UNL A   1      33.215 -33.453 -30.384  0.00  0.00    -0.047 C 
ATOM     28  C   UNL A   1      33.121 -34.674 -29.451  0.00  0.00    -0.012 C 
ENDBRANCH  15  16
ENDBRANCH   4  15
TORSDOF 4
ENDMDL
MODEL 10
REMARK VINA RESULT:    -7.580     25.067     28.269
REMARK INTER + INTRA:          -9.997
REMARK INTER:                  -8.972
REMARK INTRA:                  -1.025
REMARK UNBOUND:                -0.644
REMARK  Name = cpd362.pdb
REMARK  4 active torsions:
REMARK  status: ('A' for Active; 'I' for Inactive)
REMARK    1  A    between atoms: C_7  and  C_8
REMARK    2  A    between atoms: C_8  and  N_9
REMARK    3  A    between atoms: C_12  and  C_13
REMARK    4  A    between atoms: C_13  and  N_14
REMARK                            x       y       z     vdW  Elec       q    Type
REMARK                         _______ _______ _______ _____ _____    ______ ____
ROOT
ATOM      1  N   UNL A   1      55.129 -32.265 -53.451  0.00  0.00    -0.349 N 
ATOM      2  C   UNL A   1      56.296 -32.094 -52.787  0.00  0.00    +0.005 A 
ATOM      3  C   UNL A   1      56.845 -33.127 -52.034  0.00  0.00    -0.041 A 
ATOM      4  C   UNL A   1      56.188 -34.356 -51.951  0.00  0.00    -0.025 A 
ATOM      5  C   UNL A   1      55.003 -34.515 -52.676  0.00  0.00    -0.041 A 
ATOM      6  C   UNL A   1      54.485 -33.453 -53.410  0.00  0.00    +0.005 A 
ENDROOT
BRANCH   1   7
ATOM      7  C   UNL A   1      54.551 -31.137 -54.223  0.00  0.00    +0.050 C 
BRANCH   7  14
ATOM      8  F   UNL A   1      52.998 -31.909 -56.415  0.00  0.00    -0.205 F 
ATOM      9  C   UNL A   1      52.332 -31.571 -55.303  0.00  0.00    +0.128 A 
ATOM     10  C   UNL A   1      50.944 -31.635 -55.298  0.00  0.00    -0.026 A 
ATOM     11  C   UNL A   1      50.248 -31.285 -54.143  0.00  0.00    -0.059 A 
ATOM     12  C   UNL A   1      50.946 -30.873 -53.007  0.00  0.00    -0.061 A 
ATOM     13  C   UNL A   1      52.342 -30.812 -53.018  0.00  0.00    -0.054 A 
ATOM     14  C   UNL A   1      53.051 -31.166 -54.174  0.00  0.00    +0.007 A 
ENDBRANCH   7  14
ENDBRANCH   1   7
BRANCH   4  15
ATOM     15  C   UNL A   1      56.772 -35.476 -51.109  0.00  0.00    +0.049 C 
BRANCH  15  16
ATOM     16  N   UNL A   1      55.974 -35.746 -49.916  0.00  0.00    -0.339 N 
ATOM     17  C   UNL A   1      55.061 -36.762 -49.773  0.00  0.00    +0.023 A 
ATOM     18  C   UNL A   1      54.509 -36.669 -48.511  0.00  0.00    -0.019 A 
ATOM     19  C   UNL A   1      55.097 -35.550 -47.862  0.00  0.00    +0.003 A 
ATOM     20  C   UNL A   1      54.932 -34.962 -46.592  0.00  0.00    -0.052 A 
ATOM     21  C   UNL A   1      55.697 -33.846 -46.240  0.00  0.00    -0.061 A 
ATOM     22  C   UNL A   1      56.621 -33.315 -47.133  0.00  0.00    -0.060 A 
ATOM     23  C   UNL A   1      56.804 -33.878 -48.400  0.00  0.00    -0.038 A 
ATOM     24  C   UNL A   1      56.026 -34.996 -48.749  0.00  0.00    +0.050 A 
ATOM     25  C   UNL A   1      53.474 -37.620 -48.007  0.00  0.00    -0.025 C 
ATOM     26  C   UNL A   1      53.434 -38.898 -48.863  0.00  0.00    -0.049 C 
ATOM     27  C   UNL A   1      53.467 -38.581 -50.367  0.00  0.00    -0.047 C 
ATOM     28  C   UNL A   1      54.746 -37.826 -50.774  0.00  0.00    -0.012 C 
ENDBRANCH  15  16
ENDBRANCH   4  15
TORSDOF 4
ENDMDL
MODEL 11
REMARK VINA RESULT:    -7.512     19.643     21.886
REMARK INTER + INTRA:          -9.913
REMARK INTER:                  -8.832
REMARK INTRA:                  -1.080
REMARK UNBOUND:                -0.644
REMARK  Name = cpd362.pdb
REMARK  4 active torsions:
REMARK  status: ('A' for Active; 'I' for Inactive)
REMARK    1  A    between atoms: C_7  and  C_8
REMARK    2  A    between atoms: C_8  and  N_9
REMARK    3  A    between atoms: C_12  and  C_13
REMARK    4  A    between atoms: C_13  and  N_14
REMARK                            x       y       z     vdW  Elec       q    Type
REMARK                         _______ _______ _______ _____ _____    ______ ____
ROOT
ATOM      1  N   UNL A   1      45.069 -19.102 -34.665  0.00  0.00    -0.349 N 
ATOM      2  C   UNL A   1      44.547 -19.809 -35.692  0.00  0.00    +0.005 A 
ATOM      3  C   UNL A   1      45.200 -19.872 -36.919  0.00  0.00    -0.041 A 
ATOM      4  C   UNL A   1      46.406 -19.192 -37.104  0.00  0.00    -0.025 A 
ATOM      5  C   UNL A   1      46.940 -18.499 -36.014  0.00  0.00    -0.041 A 
ATOM      6  C   UNL A   1      46.249 -18.456 -34.807  0.00  0.00    +0.005 A 
ENDROOT
BRANCH   1   7
ATOM      7  C   UNL A   1      44.338 -19.028 -33.375  0.00  0.00    +0.050 C 
BRANCH   7  14
ATOM      8  F   UNL A   1      42.606 -17.147 -34.503  0.00  0.00    -0.205 F 
ATOM      9  C   UNL A   1      43.365 -16.721 -33.483  0.00  0.00    +0.128 A 
ATOM     10  C   UNL A   1      43.241 -15.409 -33.047  0.00  0.00    -0.026 A 
ATOM     11  C   UNL A   1      44.027 -14.964 -31.986  0.00  0.00    -0.059 A 
ATOM     12  C   UNL A   1      44.930 -15.835 -31.375  0.00  0.00    -0.061 A 
ATOM     13  C   UNL A   1      45.049 -17.155 -31.819  0.00  0.00    -0.054 A 
ATOM     14  C   UNL A   1      44.260 -17.612 -32.882  0.00  0.00    +0.007 A 
ENDBRANCH   7  14
ENDBRANCH   1   7
BRANCH   4  15
ATOM     15  C   UNL A   1      47.106 -19.237 -38.449  0.00  0.00    +0.049 C 
BRANCH  15  16
ATOM     16  N   UNL A   1      46.209 -18.909 -39.553  0.00  0.00    -0.339 N 
ATOM     17  C   UNL A   1      45.611 -17.692 -39.767  0.00  0.00    +0.023 A 
ATOM     18  C   UNL A   1      44.827 -17.791 -40.900  0.00  0.00    -0.019 A 
ATOM     19  C   UNL A   1      44.941 -19.119 -41.391  0.00  0.00    +0.003 A 
ATOM     20  C   UNL A   1      44.381 -19.805 -42.487  0.00  0.00    -0.052 A 
ATOM     21  C   UNL A   1      44.719 -21.143 -42.714  0.00  0.00    -0.061 A 
ATOM     22  C   UNL A   1      45.605 -21.799 -41.867  0.00  0.00    -0.060 A 
ATOM     23  C   UNL A   1      46.175 -21.142 -40.772  0.00  0.00    -0.038 A 
ATOM     24  C   UNL A   1      45.825 -19.800 -40.547  0.00  0.00    +0.050 A 
ATOM     25  C   UNL A   1      44.029 -16.649 -41.436  0.00  0.00    -0.025 C 
ATOM     26  C   UNL A   1      44.513 -15.311 -40.849  0.00  0.00    -0.049 C 
ATOM     27  C   UNL A   1      44.738 -15.400 -39.331  0.00  0.00    -0.047 C 
ATOM     28  C   UNL A   1      45.803 -16.448 -38.961  0.00  0.00    -0.012 C 
ENDBRANCH  15  16
ENDBRANCH   4  15
TORSDOF 4
ENDMDL
MODEL 12
REMARK VINA RESULT:    -7.509     17.955     21.020
REMARK INTER + INTRA:          -9.909
REMARK INTER:                  -8.717
REMARK INTRA:                  -1.192
REMARK UNBOUND:                -0.644
REMARK  Name = cpd362.pdb
REMARK  4 active torsions:
REMARK  status: ('A' for Active; 'I' for Inactive)
REMARK    1  A    between atoms: C_7  and  C_8
REMARK    2  A    between atoms: C_8  and  N_9
REMARK    3  A    between atoms: C_12  and  C_13
REMARK    4  A    between atoms: C_13  and  N_14
REMARK                            x       y       z     vdW  Elec       q    Type
REMARK                         _______ _______ _______ _____ _____    ______ ____
ROOT
ATOM      1  N   UNL A   1      43.511 -19.288 -34.385  0.00  0.00    -0.349 N 
ATOM      2  C   UNL A   1      44.527 -20.153 -34.165  0.00  0.00    +0.005 A 
ATOM      3  C   UNL A   1      45.738 -20.015 -34.837  0.00  0.00    -0.041 A 
ATOM      4  C   UNL A   1      45.912 -18.980 -35.757  0.00  0.00    -0.025 A 
ATOM      5  C   UNL A   1      44.857 -18.081 -35.938  0.00  0.00    -0.041 A 
ATOM      6  C   UNL A   1      43.661 -18.260 -35.251  0.00  0.00    +0.005 A 
ENDROOT
BRANCH   1   7
ATOM      7  C   UNL A   1      42.220 -19.475 -33.677  0.00  0.00    +0.050 C 
BRANCH   7  14
ATOM      8  F   UNL A   1      41.444 -21.536 -31.957  0.00  0.00    -0.205 F 
ATOM      9  C   UNL A   1      41.141 -21.696 -33.253  0.00  0.00    +0.128 A 
ATOM     10  C   UNL A   1      40.464 -22.840 -33.655  0.00  0.00    -0.026 A 
ATOM     11  C   UNL A   1      40.146 -23.008 -35.001  0.00  0.00    -0.059 A 
ATOM     12  C   UNL A   1      40.510 -22.033 -35.930  0.00  0.00    -0.061 A 
ATOM     13  C   UNL A   1      41.191 -20.883 -35.518  0.00  0.00    -0.054 A 
ATOM     14  C   UNL A   1      41.511 -20.704 -34.166  0.00  0.00    +0.007 A 
ENDBRANCH   7  14
ENDBRANCH   1   7
BRANCH   4  15
ATOM     15  C   UNL A   1      47.223 -18.844 -36.510  0.00  0.00    +0.049 C 
BRANCH  15  16
ATOM     16  N   UNL A   1      47.020 -18.651 -37.943  0.00  0.00    -0.339 N 
ATOM     17  C   UNL A   1      46.685 -19.630 -38.846  0.00  0.00    +0.023 A 
ATOM     18  C   UNL A   1      46.604 -19.051 -40.097  0.00  0.00    -0.019 A 
ATOM     19  C   UNL A   1      46.909 -17.670 -39.958  0.00  0.00    +0.003 A 
ATOM     20  C   UNL A   1      46.994 -16.594 -40.863  0.00  0.00    -0.052 A 
ATOM     21  C   UNL A   1      47.309 -15.316 -40.391  0.00  0.00    -0.061 A 
ATOM     22  C   UNL A   1      47.535 -15.099 -39.037  0.00  0.00    -0.060 A 
ATOM     23  C   UNL A   1      47.458 -16.150 -38.117  0.00  0.00    -0.038 A 
ATOM     24  C   UNL A   1      47.149 -17.434 -38.599  0.00  0.00    +0.050 A 
ATOM     25  C   UNL A   1      46.255 -19.823 -41.327  0.00  0.00    -0.025 C 
ATOM     26  C   UNL A   1      45.607 -21.172 -40.967  0.00  0.00    -0.049 C 
ATOM     27  C   UNL A   1      46.368 -21.891 -39.842  0.00  0.00    -0.047 C 
ATOM     28  C   UNL A   1      46.400 -21.065 -38.542  0.00  0.00    -0.012 C 
ENDBRANCH  15  16
ENDBRANCH   4  15
TORSDOF 4
ENDMDL
MODEL 13
REMARK VINA RESULT:    -7.452     17.534     20.458
REMARK INTER + INTRA:          -9.839
REMARK INTER:                  -8.715
REMARK INTRA:                  -1.123
REMARK UNBOUND:                -0.644
REMARK  Name = cpd362.pdb
REMARK  4 active torsions:
REMARK  status: ('A' for Active; 'I' for Inactive)
REMARK    1  A    between atoms: C_7  and  C_8
REMARK    2  A    between atoms: C_8  and  N_9
REMARK    3  A    between atoms: C_12  and  C_13
REMARK    4  A    between atoms: C_13  and  N_14
REMARK                            x       y       z     vdW  Elec       q    Type
REMARK                         _______ _______ _______ _____ _____    ______ ____
ROOT
ATOM      1  N   UNL A   1      42.787 -19.631 -34.558  0.00  0.00    -0.349 N 
ATOM      2  C   UNL A   1      43.959 -19.550 -33.888  0.00  0.00    +0.005 A 
ATOM      3  C   UNL A   1      45.172 -19.721 -34.550  0.00  0.00    -0.041 A 
ATOM      4  C   UNL A   1      45.187 -19.987 -35.921  0.00  0.00    -0.025 A 
ATOM      5  C   UNL A   1      43.962 -20.029 -36.593  0.00  0.00    -0.041 A 
ATOM      6  C   UNL A   1      42.774 -19.860 -35.891  0.00  0.00    +0.005 A 
ENDROOT
BRANCH   1   7
ATOM      7  C   UNL A   1      41.507 -19.474 -33.823  0.00  0.00    +0.050 C 
BRANCH   7  14
ATOM      8  F   UNL A   1      39.241 -20.001 -35.371  0.00  0.00    -0.205 F 
ATOM      9  C   UNL A   1      39.646 -20.983 -34.554  0.00  0.00    +0.128 A 
ATOM     10  C   UNL A   1      38.943 -22.181 -34.534  0.00  0.00    -0.026 A 
ATOM     11  C   UNL A   1      39.362 -23.205 -33.686  0.00  0.00    -0.059 A 
ATOM     12  C   UNL A   1      40.477 -23.019 -32.867  0.00  0.00    -0.061 A 
ATOM     13  C   UNL A   1      41.180 -21.811 -32.893  0.00  0.00    -0.054 A 
ATOM     14  C   UNL A   1      40.768 -20.778 -33.745  0.00  0.00    +0.007 A 
ENDBRANCH   7  14
ENDBRANCH   1   7
BRANCH   4  15
ATOM     15  C   UNL A   1      46.507 -20.199 -36.640  0.00  0.00    +0.049 C 
BRANCH  15  16
ATOM     16  N   UNL A   1      46.572 -19.473 -37.904  0.00  0.00    -0.339 N 
ATOM     17  C   UNL A   1      46.881 -18.143 -38.052  0.00  0.00    +0.023 A 
ATOM     18  C   UNL A   1      46.820 -17.834 -39.396  0.00  0.00    -0.019 A 
ATOM     19  C   UNL A   1      46.451 -19.013 -40.096  0.00  0.00    +0.003 A 
ATOM     20  C   UNL A   1      46.227 -19.311 -41.455  0.00  0.00    -0.052 A 
ATOM     21  C   UNL A   1      45.883 -20.613 -41.832  0.00  0.00    -0.061 A 
ATOM     22  C   UNL A   1      45.765 -21.616 -40.876  0.00  0.00    -0.060 A 
ATOM     23  C   UNL A   1      45.980 -21.347 -39.520  0.00  0.00    -0.038 A 
ATOM     24  C   UNL A   1      46.318 -20.034 -39.148  0.00  0.00    +0.050 A 
ATOM     25  C   UNL A   1      47.103 -16.467 -39.927  0.00  0.00    -0.025 C 
ATOM     26  C   UNL A   1      47.855 -15.615 -38.890  0.00  0.00    -0.049 C 
ATOM     27  C   UNL A   1      47.237 -15.743 -37.488  0.00  0.00    -0.047 C 
ATOM     28  C   UNL A   1      47.272 -17.191 -36.967  0.00  0.00    -0.012 C 
ENDBRANCH  15  16
ENDBRANCH   4  15
TORSDOF 4
ENDMDL
MODEL 14
REMARK VINA RESULT:    -7.446     17.313     20.343
REMARK INTER + INTRA:          -9.831
REMARK INTER:                  -8.872
REMARK INTRA:                  -0.959
REMARK UNBOUND:                -0.644
REMARK  Name = cpd362.pdb
REMARK  4 active torsions:
REMARK  status: ('A' for Active; 'I' for Inactive)
REMARK    1  A    between atoms: C_7  and  C_8
REMARK    2  A    between atoms: C_8  and  N_9
REMARK    3  A    between atoms: C_12  and  C_13
REMARK    4  A    between atoms: C_13  and  N_14
REMARK                            x       y       z     vdW  Elec       q    Type
REMARK                         _______ _______ _______ _____ _____    ______ ____
ROOT
ATOM      1  N   UNL A   1      41.587 -20.029 -37.103  0.00  0.00    -0.349 N 
ATOM      2  C   UNL A   1      40.888 -19.779 -38.234  0.00  0.00    +0.005 A 
ATOM      3  C   UNL A   1      41.432 -20.058 -39.484  0.00  0.00    -0.041 A 
ATOM      4  C   UNL A   1      42.717 -20.595 -39.583  0.00  0.00    -0.025 A 
ATOM      5  C   UNL A   1      43.401 -20.877 -38.396  0.00  0.00    -0.041 A 
ATOM      6  C   UNL A   1      42.823 -20.575 -37.168  0.00  0.00    +0.005 A 
ENDROOT
BRANCH   1   7
ATOM      7  C   UNL A   1      40.995 -19.695 -35.783  0.00  0.00    +0.050 C 
BRANCH   7  14
ATOM      8  F   UNL A   1      42.262 -20.259 -33.357  0.00  0.00    -0.205 F 
ATOM      9  C   UNL A   1      41.364 -21.158 -33.783  0.00  0.00    +0.128 A 
ATOM     10  C   UNL A   1      41.110 -22.282 -33.008  0.00  0.00    -0.026 A 
ATOM     11  C   UNL A   1      40.176 -23.218 -33.447  0.00  0.00    -0.059 A 
ATOM     12  C   UNL A   1      39.508 -23.021 -34.656  0.00  0.00    -0.061 A 
ATOM     13  C   UNL A   1      39.768 -21.887 -35.431  0.00  0.00    -0.054 A 
ATOM     14  C   UNL A   1      40.702 -20.939 -34.995  0.00  0.00    +0.007 A 
ENDBRANCH   7  14
ENDBRANCH   1   7
BRANCH   4  15
ATOM     15  C   UNL A   1      43.322 -20.876 -40.946  0.00  0.00    +0.049 C 
BRANCH  15  16
ATOM     16  N   UNL A   1      44.685 -20.365 -41.062  0.00  0.00    -0.339 N 
ATOM     17  C   UNL A   1      45.055 -19.044 -41.005  0.00  0.00    +0.023 A 
ATOM     18  C   UNL A   1      46.423 -18.973 -41.173  0.00  0.00    -0.019 A 
ATOM     19  C   UNL A   1      46.908 -20.297 -41.350  0.00  0.00    +0.003 A 
ATOM     20  C   UNL A   1      48.187 -20.846 -41.568  0.00  0.00    -0.052 A 
ATOM     21  C   UNL A   1      48.336 -22.231 -41.685  0.00  0.00    -0.061 A 
ATOM     22  C   UNL A   1      47.231 -23.070 -41.583  0.00  0.00    -0.060 A 
ATOM     23  C   UNL A   1      45.950 -22.551 -41.367  0.00  0.00    -0.038 A 
ATOM     24  C   UNL A   1      45.808 -21.157 -41.258  0.00  0.00    +0.050 A 
ATOM     25  C   UNL A   1      47.176 -17.683 -41.163  0.00  0.00    -0.025 C 
ATOM     26  C   UNL A   1      46.334 -16.556 -40.538  0.00  0.00    -0.049 C 
ATOM     27  C   UNL A   1      44.891 -16.559 -41.068  0.00  0.00    -0.047 C 
ATOM     28  C   UNL A   1      44.157 -17.875 -40.751  0.00  0.00    -0.012 C 
ENDBRANCH  15  16
ENDBRANCH   4  15
TORSDOF 4
ENDMDL
MODEL 15
REMARK VINA RESULT:    -7.398     15.444     17.896
REMARK INTER + INTRA:          -9.772
REMARK INTER:                  -8.705
REMARK INTRA:                  -1.067
REMARK UNBOUND:                -0.644
REMARK  Name = cpd362.pdb
REMARK  4 active torsions:
REMARK  status: ('A' for Active; 'I' for Inactive)
REMARK    1  A    between atoms: C_7  and  C_8
REMARK    2  A    between atoms: C_8  and  N_9
REMARK    3  A    between atoms: C_12  and  C_13
REMARK    4  A    between atoms: C_13  and  N_14
REMARK                            x       y       z     vdW  Elec       q    Type
REMARK                         _______ _______ _______ _____ _____    ______ ____
ROOT
ATOM      1  N   UNL A   1      43.573 -19.769 -37.418  0.00  0.00    -0.349 N 
ATOM      2  C   UNL A   1      44.237 -19.339 -36.320  0.00  0.00    +0.005 A 
ATOM      3  C   UNL A   1      43.820 -19.711 -35.045  0.00  0.00    -0.041 A 
ATOM      4  C   UNL A   1      42.700 -20.530 -34.887  0.00  0.00    -0.025 A 
ATOM      5  C   UNL A   1      42.056 -20.987 -36.041  0.00  0.00    -0.041 A 
ATOM      6  C   UNL A   1      42.502 -20.584 -37.296  0.00  0.00    +0.005 A 
ENDROOT
BRANCH   1   7
ATOM      7  C   UNL A   1      44.021 -19.334 -38.765  0.00  0.00    +0.050 C 
BRANCH   7  14
ATOM      8  F   UNL A   1      43.079 -20.609 -41.066  0.00  0.00    -0.205 F 
ATOM      9  C   UNL A   1      44.271 -21.015 -40.606  0.00  0.00    +0.128 A 
ATOM     10  C   UNL A   1      44.959 -22.010 -41.289  0.00  0.00    -0.026 A 
ATOM     11  C   UNL A   1      46.198 -22.433 -40.814  0.00  0.00    -0.059 A 
ATOM     12  C   UNL A   1      46.735 -21.859 -39.661  0.00  0.00    -0.061 A 
ATOM     13  C   UNL A   1      46.038 -20.857 -38.979  0.00  0.00    -0.054 A 
ATOM     14  C   UNL A   1      44.793 -20.423 -39.451  0.00  0.00    +0.007 A 
ENDBRANCH   7  14
ENDBRANCH   1   7
BRANCH   4  15
ATOM     15  C   UNL A   1      42.229 -20.914 -33.497  0.00  0.00    +0.049 C 
BRANCH  15  16
ATOM     16  N   UNL A   1      40.794 -20.708 -33.321  0.00  0.00    -0.339 N 
ATOM     17  C   UNL A   1      40.189 -19.519 -32.992  0.00  0.00    +0.023 A 
ATOM     18  C   UNL A   1      38.829 -19.740 -32.905  0.00  0.00    -0.019 A 
ATOM     19  C   UNL A   1      38.593 -21.114 -33.180  0.00  0.00    +0.003 A 
ATOM     20  C   UNL A   1      37.435 -21.914 -33.231  0.00  0.00    -0.052 A 
ATOM     21  C   UNL A   1      37.542 -23.269 -33.559  0.00  0.00    -0.061 A 
ATOM     22  C   UNL A   1      38.783 -23.831 -33.839  0.00  0.00    -0.060 A 
ATOM     23  C   UNL A   1      39.949 -23.060 -33.796  0.00  0.00    -0.038 A 
ATOM     24  C   UNL A   1      39.834 -21.700 -33.458  0.00  0.00    +0.050 A 
ATOM     25  C   UNL A   1      37.852 -18.662 -32.567  0.00  0.00    -0.025 C 
ATOM     26  C   UNL A   1      38.480 -17.270 -32.753  0.00  0.00    -0.049 C 
ATOM     27  C   UNL A   1      39.893 -17.193 -32.153  0.00  0.00    -0.047 C 
ATOM     28  C   UNL A   1      40.859 -18.196 -32.810  0.00  0.00    -0.012 C 
ENDBRANCH  15  16
ENDBRANCH   4  15
TORSDOF 4
ENDMDL
MODEL 16
REMARK VINA RESULT:    -7.375     17.402     20.094
REMARK INTER + INTRA:          -9.743
REMARK INTER:                  -8.623
REMARK INTRA:                  -1.120
REMARK UNBOUND:                -0.644
REMARK  Name = cpd362.pdb
REMARK  4 active torsions:
REMARK  status: ('A' for Active; 'I' for Inactive)
REMARK    1  A    between atoms: C_7  and  C_8
REMARK    2  A    between atoms: C_8  and  N_9
REMARK    3  A    between atoms: C_12  and  C_13
REMARK    4  A    between atoms: C_13  and  N_14
REMARK                            x       y       z     vdW  Elec       q    Type
REMARK                         _______ _______ _______ _____ _____    ______ ____
ROOT
ATOM      1  N   UNL A   1      45.546 -19.534 -38.400  0.00  0.00    -0.349 N 
ATOM      2  C   UNL A   1      46.501 -19.287 -37.475  0.00  0.00    +0.005 A 
ATOM      3  C   UNL A   1      46.267 -19.535 -36.125  0.00  0.00    -0.041 A 
ATOM      4  C   UNL A   1      45.031 -20.036 -35.712  0.00  0.00    -0.025 A 
ATOM      5  C   UNL A   1      44.076 -20.315 -36.694  0.00  0.00    -0.041 A 
ATOM      6  C   UNL A   1      44.350 -20.045 -38.031  0.00  0.00    +0.005 A 
ENDROOT
BRANCH   1   7
ATOM      7  C   UNL A   1      45.812 -19.233 -39.829  0.00  0.00    +0.050 C 
BRANCH   7  14
ATOM      8  F   UNL A   1      44.301 -19.939 -42.072  0.00  0.00    -0.205 F 
ATOM      9  C   UNL A   1      45.281 -20.784 -41.724  0.00  0.00    +0.128 A 
ATOM     10  C   UNL A   1      45.495 -21.926 -42.486  0.00  0.00    -0.026 A 
ATOM     11  C   UNL A   1      46.514 -22.806 -42.128  0.00  0.00    -0.059 A 
ATOM     12  C   UNL A   1      47.307 -22.537 -41.011  0.00  0.00    -0.061 A 
ATOM     13  C   UNL A   1      47.087 -21.385 -40.250  0.00  0.00    -0.054 A 
ATOM     14  C   UNL A   1      46.067 -20.493 -40.605  0.00  0.00    +0.007 A 
ENDBRANCH   7  14
ENDBRANCH   1   7
BRANCH   4  15
ATOM     15  C   UNL A   1      44.764 -20.282 -34.238  0.00  0.00    +0.049 C 
BRANCH  15  16
ATOM     16  N   UNL A   1      43.681 -19.448 -33.725  0.00  0.00    -0.339 N 
ATOM     17  C   UNL A   1      42.402 -19.870 -33.454  0.00  0.00    +0.023 A 
ATOM     18  C   UNL A   1      41.678 -18.784 -33.003  0.00  0.00    -0.019 A 
ATOM     19  C   UNL A   1      42.541 -17.655 -33.007  0.00  0.00    +0.003 A 
ATOM     20  C   UNL A   1      42.372 -16.298 -32.668  0.00  0.00    -0.052 A 
ATOM     21  C   UNL A   1      43.455 -15.419 -32.768  0.00  0.00    -0.061 A 
ATOM     22  C   UNL A   1      44.697 -15.876 -33.196  0.00  0.00    -0.060 A 
ATOM     23  C   UNL A   1      44.891 -17.218 -33.540  0.00  0.00    -0.038 A 
ATOM     24  C   UNL A   1      43.796 -18.094 -33.444  0.00  0.00    +0.050 A 
ATOM     25  C   UNL A   1      40.240 -18.876 -32.609  0.00  0.00    -0.025 C 
ATOM     26  C   UNL A   1      39.825 -20.338 -32.367  0.00  0.00    -0.049 C 
ATOM     27  C   UNL A   1      40.343 -21.271 -33.474  0.00  0.00    -0.047 C 
ATOM     28  C   UNL A   1      41.880 -21.266 -33.568  0.00  0.00    -0.012 C 
ENDBRANCH  15  16
ENDBRANCH   4  15
TORSDOF 4
ENDMDL
MODEL 17
REMARK VINA RESULT:    -7.369     15.677     18.388
REMARK INTER + INTRA:          -9.736
REMARK INTER:                  -8.590
REMARK INTRA:                  -1.146
REMARK UNBOUND:                -0.644
REMARK  Name = cpd362.pdb
REMARK  4 active torsions:
REMARK  status: ('A' for Active; 'I' for Inactive)
REMARK    1  A    between atoms: C_7  and  C_8
REMARK    2  A    between atoms: C_8  and  N_9
REMARK    3  A    between atoms: C_12  and  C_13
REMARK    4  A    between atoms: C_13  and  N_14
REMARK                            x       y       z     vdW  Elec       q    Type
REMARK                         _______ _______ _______ _____ _____    ______ ____
ROOT
ATOM      1  N   UNL A   1      43.532 -19.733 -37.676  0.00  0.00    -0.349 N 
ATOM      2  C   UNL A   1      42.605 -20.704 -37.510  0.00  0.00    +0.005 A 
ATOM      3  C   UNL A   1      42.172 -21.065 -36.237  0.00  0.00    -0.041 A 
ATOM      4  C   UNL A   1      42.701 -20.429 -35.113  0.00  0.00    -0.025 A 
ATOM      5  C   UNL A   1      43.631 -19.405 -35.317  0.00  0.00    -0.041 A 
ATOM      6  C   UNL A   1      44.042 -19.082 -36.606  0.00  0.00    +0.005 A 
ENDROOT
BRANCH   1   7
ATOM      7  C   UNL A   1      43.998 -19.387 -39.042  0.00  0.00    +0.050 C 
BRANCH   7  14
ATOM      8  F   UNL A   1      43.445 -20.838 -41.365  0.00  0.00    -0.205 F 
ATOM      9  C   UNL A   1      44.600 -21.121 -40.747  0.00  0.00    +0.128 A 
ATOM     10  C   UNL A   1      45.442 -22.083 -41.290  0.00  0.00    -0.026 A 
ATOM     11  C   UNL A   1      46.644 -22.378 -40.650  0.00  0.00    -0.059 A 
ATOM     12  C   UNL A   1      46.991 -21.710 -39.475  0.00  0.00    -0.061 A 
ATOM     13  C   UNL A   1      46.140 -20.742 -38.935  0.00  0.00    -0.054 A 
ATOM     14  C   UNL A   1      44.931 -20.436 -39.573  0.00  0.00    +0.007 A 
ENDBRANCH   7  14
ENDBRANCH   1   7
BRANCH   4  15
ATOM     15  C   UNL A   1      42.250 -20.840 -33.723  0.00  0.00    +0.049 C 
BRANCH  15  16
ATOM     16  N   UNL A   1      40.864 -20.465 -33.458  0.00  0.00    -0.339 N 
ATOM     17  C   UNL A   1      39.774 -21.295 -33.559  0.00  0.00    +0.023 A 
ATOM     18  C   UNL A   1      38.646 -20.564 -33.243  0.00  0.00    -0.019 A 
ATOM     19  C   UNL A   1      39.059 -19.236 -32.948  0.00  0.00    +0.003 A 
ATOM     20  C   UNL A   1      38.374 -18.063 -32.576  0.00  0.00    -0.052 A 
ATOM     21  C   UNL A   1      39.093 -16.889 -32.332  0.00  0.00    -0.061 A 
ATOM     22  C   UNL A   1      40.478 -16.873 -32.449  0.00  0.00    -0.060 A 
ATOM     23  C   UNL A   1      41.183 -18.024 -32.817  0.00  0.00    -0.038 A 
ATOM     24  C   UNL A   1      40.452 -19.198 -33.068  0.00  0.00    +0.050 A 
ATOM     25  C   UNL A   1      37.273 -21.150 -33.246  0.00  0.00    -0.025 C 
ATOM     26  C   UNL A   1      37.328 -22.688 -33.217  0.00  0.00    -0.049 C 
ATOM     27  C   UNL A   1      38.363 -23.242 -34.209  0.00  0.00    -0.047 C 
ATOM     28  C   UNL A   1      39.789 -22.751 -33.897  0.00  0.00    -0.012 C 
ENDBRANCH  15  16
ENDBRANCH   4  15
TORSDOF 4
ENDMDL
MODEL 18
REMARK VINA RESULT:    -7.139     17.401     19.904
REMARK INTER + INTRA:          -9.453
REMARK INTER:                  -8.432
REMARK INTRA:                  -1.021
REMARK UNBOUND:                -0.644
REMARK  Name = cpd362.pdb
REMARK  4 active torsions:
REMARK  status: ('A' for Active; 'I' for Inactive)
REMARK    1  A    between atoms: C_7  and  C_8
REMARK    2  A    between atoms: C_8  and  N_9
REMARK    3  A    between atoms: C_12  and  C_13
REMARK    4  A    between atoms: C_13  and  N_14
REMARK                            x       y       z     vdW  Elec       q    Type
REMARK                         _______ _______ _______ _____ _____    ______ ____
ROOT
ATOM      1  N   UNL A   1      45.488 -19.565 -38.435  0.00  0.00    -0.349 N 
ATOM      2  C   UNL A   1      46.448 -19.410 -37.495  0.00  0.00    +0.005 A 
ATOM      3  C   UNL A   1      46.178 -19.659 -36.152  0.00  0.00    -0.041 A 
ATOM      4  C   UNL A   1      44.901 -20.065 -35.761  0.00  0.00    -0.025 A 
ATOM      5  C   UNL A   1      43.939 -20.251 -36.759  0.00  0.00    -0.041 A 
ATOM      6  C   UNL A   1      44.250 -19.984 -38.088  0.00  0.00    +0.005 A 
ENDROOT
BRANCH   1   7
ATOM      7  C   UNL A   1      45.795 -19.266 -39.856  0.00  0.00    +0.050 C 
BRANCH   7  14
ATOM      8  F   UNL A   1      44.289 -19.576 -42.190  0.00  0.00    -0.205 F 
ATOM      9  C   UNL A   1      45.063 -20.612 -41.838  0.00  0.00    +0.128 A 
ATOM     10  C   UNL A   1      45.083 -21.746 -42.639  0.00  0.00    -0.026 A 
ATOM     11  C   UNL A   1      45.887 -22.825 -42.277  0.00  0.00    -0.059 A 
ATOM     12  C   UNL A   1      46.660 -22.759 -41.117  0.00  0.00    -0.061 A 
ATOM     13  C   UNL A   1      46.636 -21.614 -40.316  0.00  0.00    -0.054 A 
ATOM     14  C   UNL A   1      45.834 -20.523 -40.674  0.00  0.00    +0.007 A 
ENDBRANCH   7  14
ENDBRANCH   1   7
BRANCH   4  15
ATOM     15  C   UNL A   1      44.596 -20.311 -34.295  0.00  0.00    +0.049 C 
BRANCH  15  16
ATOM     16  N   UNL A   1      43.548 -19.428 -33.791  0.00  0.00    -0.339 N 
ATOM     17  C   UNL A   1      43.682 -18.083 -33.544  0.00  0.00    +0.023 A 
ATOM     18  C   UNL A   1      42.476 -17.613 -33.062  0.00  0.00    -0.019 A 
ATOM     19  C   UNL A   1      41.575 -18.711 -33.002  0.00  0.00    +0.003 A 
ATOM     20  C   UNL A   1      40.234 -18.850 -32.595  0.00  0.00    -0.052 A 
ATOM     21  C   UNL A   1      39.610 -20.099 -32.679  0.00  0.00    -0.061 A 
ATOM     22  C   UNL A   1      40.303 -21.202 -33.164  0.00  0.00    -0.060 A 
ATOM     23  C   UNL A   1      41.636 -21.092 -33.575  0.00  0.00    -0.038 A 
ATOM     24  C   UNL A   1      42.258 -19.835 -33.480  0.00  0.00    +0.050 A 
ATOM     25  C   UNL A   1      42.253 -16.185 -32.689  0.00  0.00    -0.025 C 
ATOM     26  C   UNL A   1      43.341 -15.279 -33.292  0.00  0.00    -0.049 C 
ATOM     27  C   UNL A   1      44.747 -15.874 -33.110  0.00  0.00    -0.047 C 
ATOM     28  C   UNL A   1      44.893 -17.245 -33.797  0.00  0.00    -0.012 C 
ENDBRANCH  15  16
ENDBRANCH   4  15
TORSDOF 4
ENDMDL
MODEL 19
REMARK VINA RESULT:    -7.006     16.656     19.162
REMARK INTER + INTRA:          -9.288
REMARK INTER:                  -8.284
REMARK INTRA:                  -1.004
REMARK UNBOUND:                -0.644
REMARK  Name = cpd362.pdb
REMARK  4 active torsions:
REMARK  status: ('A' for Active; 'I' for Inactive)
REMARK    1  A    between atoms: C_7  and  C_8
REMARK    2  A    between atoms: C_8  and  N_9
REMARK    3  A    between atoms: C_12  and  C_13
REMARK    4  A    between atoms: C_13  and  N_14
REMARK                            x       y       z     vdW  Elec       q    Type
REMARK                         _______ _______ _______ _____ _____    ______ ____
ROOT
ATOM      1  N   UNL A   1      44.342 -19.345 -39.658  0.00  0.00    -0.349 N 
ATOM      2  C   UNL A   1      43.881 -20.438 -39.008  0.00  0.00    +0.005 A 
ATOM      3  C   UNL A   1      42.631 -20.428 -38.395  0.00  0.00    -0.041 A 
ATOM      4  C   UNL A   1      41.840 -19.279 -38.440  0.00  0.00    -0.025 A 
ATOM      5  C   UNL A   1      42.327 -18.177 -39.150  0.00  0.00    -0.041 A 
ATOM      6  C   UNL A   1      43.585 -18.227 -39.741  0.00  0.00    +0.005 A 
ENDROOT
BRANCH   1   7
ATOM      7  C   UNL A   1      45.690 -19.372 -40.278  0.00  0.00    +0.050 C 
BRANCH   7  14
ATOM      8  F   UNL A   1      44.385 -19.939 -42.684  0.00  0.00    -0.205 F 
ATOM      9  C   UNL A   1      45.234 -20.872 -42.232  0.00  0.00    +0.128 A 
ATOM     10  C   UNL A   1      45.423 -22.032 -42.973  0.00  0.00    -0.026 A 
ATOM     11  C   UNL A   1      46.305 -23.004 -42.507  0.00  0.00    -0.059 A 
ATOM     12  C   UNL A   1      46.987 -22.808 -41.305  0.00  0.00    -0.061 A 
ATOM     13  C   UNL A   1      46.793 -21.638 -40.565  0.00  0.00    -0.054 A 
ATOM     14  C   UNL A   1      45.911 -20.653 -41.028  0.00  0.00    +0.007 A 
ENDBRANCH   7  14
ENDBRANCH   1   7
BRANCH   4  15
ATOM     15  C   UNL A   1      40.489 -19.257 -37.750  0.00  0.00    +0.049 C 
BRANCH  15  16
ATOM     16  N   UNL A   1      40.571 -19.686 -36.357  0.00  0.00    -0.339 N 
ATOM     17  C   UNL A   1      41.151 -18.979 -35.333  0.00  0.00    +0.023 A 
ATOM     18  C   UNL A   1      41.039 -19.727 -34.177  0.00  0.00    -0.019 A 
ATOM     19  C   UNL A   1      40.376 -20.939 -34.507  0.00  0.00    +0.003 A 
ATOM     20  C   UNL A   1      39.993 -22.074 -33.766  0.00  0.00    -0.052 A 
ATOM     21  C   UNL A   1      39.318 -23.121 -34.401  0.00  0.00    -0.061 A 
ATOM     22  C   UNL A   1      39.019 -23.048 -35.757  0.00  0.00    -0.060 A 
ATOM     23  C   UNL A   1      39.388 -21.933 -36.516  0.00  0.00    -0.038 A 
ATOM     24  C   UNL A   1      40.073 -20.887 -35.873  0.00  0.00    +0.050 A 
ATOM     25  C   UNL A   1      41.561 -19.262 -32.857  0.00  0.00    -0.025 C 
ATOM     26  C   UNL A   1      41.827 -17.747 -32.870  0.00  0.00    -0.049 C 
ATOM     27  C   UNL A   1      42.563 -17.305 -34.145  0.00  0.00    -0.047 C 
ATOM     28  C   UNL A   1      41.755 -17.614 -35.419  0.00  0.00    -0.012 C 
ENDBRANCH  15  16
ENDBRANCH   4  15
TORSDOF 4
ENDMDL
MODEL 20
REMARK VINA RESULT:    -6.896     16.779     20.104
REMARK INTER + INTRA:          -9.153
REMARK INTER:                  -7.899
REMARK INTRA:                  -1.253
REMARK UNBOUND:                -0.644
REMARK  Name = cpd362.pdb
REMARK  4 active torsions:
REMARK  status: ('A' for Active; 'I' for Inactive)
REMARK    1  A    between atoms: C_7  and  C_8
REMARK    2  A    between atoms: C_8  and  N_9
REMARK    3  A    between atoms: C_12  and  C_13
REMARK    4  A    between atoms: C_13  and  N_14
REMARK                            x       y       z     vdW  Elec       q    Type
REMARK                         _______ _______ _______ _____ _____    ______ ____
ROOT
ATOM      1  N   UNL A   1      39.918 -20.088 -37.350  0.00  0.00    -0.349 N 
ATOM      2  C   UNL A   1      40.158 -18.757 -37.382  0.00  0.00    +0.005 A 
ATOM      3  C   UNL A   1      41.120 -18.226 -38.235  0.00  0.00    -0.041 A 
ATOM      4  C   UNL A   1      41.858 -19.071 -39.067  0.00  0.00    -0.025 A 
ATOM      5  C   UNL A   1      41.564 -20.437 -39.039  0.00  0.00    -0.041 A 
ATOM      6  C   UNL A   1      40.599 -20.926 -38.164  0.00  0.00    +0.005 A 
ENDROOT
BRANCH   1   7
ATOM      7  C   UNL A   1      38.907 -20.631 -36.410  0.00  0.00    +0.050 C 
BRANCH   7  14
ATOM      8  F   UNL A   1      39.345 -23.360 -35.996  0.00  0.00    -0.205 F 
ATOM      9  C   UNL A   1      39.758 -22.537 -35.023  0.00  0.00    +0.128 A 
ATOM     10  C   UNL A   1      40.377 -23.071 -33.900  0.00  0.00    -0.026 A 
ATOM     11  C   UNL A   1      40.809 -22.217 -32.887  0.00  0.00    -0.059 A 
ATOM     12  C   UNL A   1      40.615 -20.840 -33.007  0.00  0.00    -0.061 A 
ATOM     13  C   UNL A   1      39.993 -20.309 -34.140  0.00  0.00    -0.054 A 
ATOM     14  C   UNL A   1      39.559 -21.160 -35.166  0.00  0.00    +0.007 A 
ENDBRANCH   7  14
ENDBRANCH   1   7
BRANCH   4  15
ATOM     15  C   UNL A   1      42.926 -18.497 -39.980  0.00  0.00    +0.049 C 
BRANCH  15  16
ATOM     16  N   UNL A   1      44.225 -19.133 -39.780  0.00  0.00    -0.339 N 
ATOM     17  C   UNL A   1      44.779 -20.099 -40.586  0.00  0.00    +0.023 A 
ATOM     18  C   UNL A   1      46.002 -20.453 -40.053  0.00  0.00    -0.019 A 
ATOM     19  C   UNL A   1      46.201 -19.685 -38.875  0.00  0.00    +0.003 A 
ATOM     20  C   UNL A   1      47.235 -19.614 -37.920  0.00  0.00    -0.052 A 
ATOM     21  C   UNL A   1      47.134 -18.715 -36.854  0.00  0.00    -0.061 A 
ATOM     22  C   UNL A   1      46.023 -17.888 -36.732  0.00  0.00    -0.060 A 
ATOM     23  C   UNL A   1      44.982 -17.938 -37.666  0.00  0.00    -0.038 A 
ATOM     24  C   UNL A   1      45.087 -18.850 -38.730  0.00  0.00    +0.050 A 
ATOM     25  C   UNL A   1      46.890 -21.481 -40.675  0.00  0.00    -0.025 C 
ATOM     26  C   UNL A   1      46.484 -21.752 -42.134  0.00  0.00    -0.049 C 
ATOM     27  C   UNL A   1      44.963 -21.910 -42.285  0.00  0.00    -0.047 C 
ATOM     28  C   UNL A   1      44.200 -20.645 -41.851  0.00  0.00    -0.012 C 
ENDBRANCH  15  16
ENDBRANCH   4  15
TORSDOF 4
ENDMDL
