@<TRIPOS>MOLECULE
*****
 28 32 0 0 0
SMALL
GASTEIGER

@<TRIPOS>ATOM
      1 F          -5.2513    1.3799    0.0000 F       1  UNL1       -0.2043
      2 C          -6.1173    1.8799    0.0000 C.ar    1  UNL1        0.1427
      3 C          -6.9833    1.3799    0.0000 C.ar    1  UNL1        0.0295
      4 C          -7.8493    1.8799    0.0000 C.ar    1  UNL1        0.0023
      5 C          -7.8493    2.8799    0.0000 C.ar    1  UNL1        0.0000
      6 C          -6.9833    3.3799    0.0000 C.ar    1  UNL1        0.0047
      7 C          -6.1173    2.8799    0.0000 C.ar    1  UNL1        0.0829
      8 C          -5.2513    3.3799    0.0000 C.3     1  UNL1        0.3524
      9 N          -4.3852    2.8799    0.0000 N.ar    1  UNL1       -0.1554
     10 C          -3.5192    3.3799    0.0000 C.ar    1  UNL1        0.2901
     11 C          -2.6532    2.8799    0.0000 C.ar    1  UNL1        0.0735
     12 C          -2.6532    1.8799    0.0000 C.ar    1  UNL1        0.0126
     13 C          -1.7872    1.3799    0.0000 C.3     1  UNL1        0.1328
     14 N          -1.7872    0.3799    0.0000 N.ar    1  UNL1       -0.3268
     15 C          -0.9781   -0.2079    0.0000 C.ar    1  UNL1        0.0334
     16 C          -1.2872   -1.1590    0.0000 C.ar    1  UNL1       -0.0091
     17 C          -2.2872   -1.1590    0.0000 C.ar    1  UNL1        0.0129
     18 C          -2.9563   -1.9021    0.0000 C.ar    1  UNL1        0.0012
     19 C          -3.9344   -1.6942    0.0000 C.ar    1  UNL1        0.0001
     20 C          -4.2435   -0.7431    0.0000 C.ar    1  UNL1        0.0015
     21 C          -3.5743    0.0000    0.0000 C.ar    1  UNL1        0.0172
     22 C          -2.5962   -0.2079    0.0000 C.ar    1  UNL1        0.0596
     23 C          -0.6180   -1.9021    0.0000 C.3     1  UNL1        0.0275
     24 C           0.3601   -1.6942    0.0000 C.3     1  UNL1        0.0051
     25 C           0.6691   -0.7431    0.0000 C.3     1  UNL1        0.0066
     26 C           0.0000   -0.0000    0.0000 C.3     1  UNL1        0.0435
     27 C          -3.5192    1.3799    0.0000 C.ar    1  UNL1        0.0735
     28 C          -4.3852    1.8799    0.0000 C.ar    1  UNL1        0.2901
@<TRIPOS>UNITY_ATOM_ATTR
9 1
charge 1
@<TRIPOS>BOND
     1     1     2    1
     2     2     3   ar
     3     3     4   ar
     4     4     5   ar
     5     5     6   ar
     6     6     7   ar
     7     2     7   ar
     8     7     8    1
     9     8     9    1
    10     9    10   ar
    11    10    11   ar
    12    11    12   ar
    13    12    13    1
    14    13    14    1
    15    14    15   ar
    16    15    16   ar
    17    16    17   ar
    18    17    18   ar
    19    18    19   ar
    20    19    20   ar
    21    20    21   ar
    22    21    22   ar
    23    17    22   ar
    24    14    22   ar
    25    16    23    1
    26    23    24    1
    27    24    25    1
    28    25    26    1
    29    15    26    1
    30    12    27   ar
    31    27    28   ar
    32     9    28   ar
