REMARK  Name = cpd306.pdb
REMARK  7 active torsions:
REMARK  status: ('A' for Active; 'I' for Inactive)
REMARK    1  A    between atoms: C_2  and  C_3
REMARK    2  A    between atoms: C_3  and  N_4
REMARK    3  A    between atoms: N_4  and  C_5
REMARK    4  A    between atoms: C_5  and  N_7
REMARK    5  A    between atoms: C_13  and  O_14
REMARK    6  A    between atoms: C_19  and  O_20
REMARK    7  A    between atoms: O_20  and  C_21
REMARK                            x       y       z     vdW  Elec       q    Type
REMARK                         _______ _______ _______ _____ _____    ______ ____
ROOT
ATOM      1  N   UNL A   1       0.081   1.151   0.157  0.00  0.00    -0.308 N 
ATOM      2  C   UNL A   1       0.472   0.784  -1.209  0.00  0.00    +0.015 C 
ATOM      3  C   UNL A   1       1.708  -0.126  -1.269  0.00  0.00    -0.020 C 
ATOM      4  C   UNL A   1       1.820  -1.175  -0.134  0.00  0.00    +0.056 C 
ATOM      5  C   UNL A   1       2.424  -0.563   1.122  0.00  0.00    -0.071 C 
ATOM      6  C   UNL A   1       3.614  -0.907   1.641  0.00  0.00    -0.059 C 
ATOM      7  C   UNL A   1       4.447  -2.017   1.101  0.00  0.00    +0.077 C 
ATOM      8  C   UNL A   1       3.564  -3.053   0.426  0.00  0.00    +0.015 C 
ATOM      9  C   UNL A   1       2.637  -2.419  -0.618  0.00  0.00    +0.116 C 
ATOM     10  O   UNL A   1       1.715  -3.458  -1.019  0.00  0.00    -0.484 OA
ATOM     11  C   UNL A   1       0.522  -3.141  -0.419  0.00  0.00    +0.167 A 
ATOM     12  C   UNL A   1      -0.580  -3.980  -0.358  0.00  0.00    +0.163 A 
ATOM     13  C   UNL A   1      -1.751  -3.458   0.194  0.00  0.00    -0.002 A 
ATOM     14  C   UNL A   1      -1.824  -2.121   0.622  0.00  0.00    +0.027 A 
ATOM     15 BR   UNL A   1      -3.493  -1.558   1.344  0.00  0.00    -0.050 Br
ATOM     16  C   UNL A   1      -0.718  -1.256   0.512  0.00  0.00    -0.008 A 
ATOM     17  C   UNL A   1       0.482  -1.830   0.065  0.00  0.00    +0.017 A 
ATOM     18  C   UNL A   1      -0.842   0.219   0.850  0.00  0.00    +0.040 C 
ENDROOT
BRANCH   1  19
ATOM     19  C   UNL A   1       0.314   2.443   0.667  0.00  0.00    +0.133 C 
ATOM     20  S   UNL A   1      -0.619   3.171   1.861  0.00  0.00    -0.019 S 
BRANCH  19  21
ATOM     21  N   UNL A   1       1.405   3.062   0.087  0.00  0.00    -0.323 N 
ATOM     22  H   UNL A   1       1.891   2.558  -0.605  0.00  0.00    +0.000 HD
BRANCH  21  23
ATOM     23  C   UNL A   1       1.898   4.389   0.408  0.00  0.00    +0.029 C 
BRANCH  23  25
ATOM     24  C   UNL A   1       3.044   5.522  -1.516  0.00  0.00    -0.101 C 
ATOM     25  C   UNL A   1       3.067   4.670  -0.482  0.00  0.00    -0.074 C 
ENDBRANCH  23  25
ENDBRANCH  21  23
ENDBRANCH  19  21
ENDBRANCH   1  19
BRANCH   7  26
ATOM     26  O   UNL A   1       5.129  -2.613   2.195  0.00  0.00    -0.388 OA
ATOM     27  H   UNL A   1       4.482  -2.945   2.837  0.00  0.00    +0.000 HD
ENDBRANCH   7  26
BRANCH  12  28
ATOM     28  O   UNL A   1      -0.688  -5.274  -0.775  0.00  0.00    -0.491 OA
ATOM     29  C   UNL A   1       0.502  -5.933  -1.186  0.00  0.00    +0.079 C 
ENDBRANCH  12  28
TORSDOF 6
