MODEL 1
REMARK VINA RESULT:    -7.895      0.000      0.000
REMARK INTER + INTRA:         -11.135
REMARK INTER:                 -10.433
REMARK INTRA:                  -0.702
REMARK UNBOUND:                -0.702
REMARK  Name = cpd306.pdb
REMARK  7 active torsions:
REMARK  status: ('A' for Active; 'I' for Inactive)
REMARK    1  A    between atoms: C_2  and  C_3
REMARK    2  A    between atoms: C_3  and  N_4
REMARK    3  A    between atoms: N_4  and  C_5
REMARK    4  A    between atoms: C_5  and  N_7
REMARK    5  A    between atoms: C_13  and  O_14
REMARK    6  A    between atoms: C_19  and  O_20
REMARK    7  A    between atoms: O_20  and  C_21
REMARK                            x       y       z     vdW  Elec       q    Type
REMARK                         _______ _______ _______ _____ _____    ______ ____
ROOT
ATOM      1  N   UNL A   1      35.888 -38.957 -28.826  0.00  0.00    -0.308 N 
ATOM      2  C   UNL A   1      35.604 -39.016 -30.264  0.00  0.00    +0.015 C 
ATOM      3  C   UNL A   1      35.118 -37.680 -30.848  0.00  0.00    -0.020 C 
ATOM      4  C   UNL A   1      35.778 -36.412 -30.251  0.00  0.00    +0.056 C 
ATOM      5  C   UNL A   1      35.103 -36.002 -28.950  0.00  0.00    -0.071 C 
ATOM      6  C   UNL A   1      34.406 -34.867 -28.777  0.00  0.00    -0.059 C 
ATOM      7  C   UNL A   1      34.299 -33.811 -29.821  0.00  0.00    +0.077 C 
ATOM      8  C   UNL A   1      35.519 -33.845 -30.727  0.00  0.00    +0.015 C 
ATOM      9  C   UNL A   1      35.768 -35.247 -31.296  0.00  0.00    +0.116 C 
ATOM     10  O   UNL A   1      37.057 -35.191 -31.949  0.00  0.00    -0.484 OA
ATOM     11  C   UNL A   1      37.918 -35.861 -31.117  0.00  0.00    +0.167 A 
ATOM     12  C   UNL A   1      39.298 -35.867 -31.246  0.00  0.00    +0.163 A 
ATOM     13  C   UNL A   1      40.018 -36.691 -30.379  0.00  0.00    -0.002 A 
ATOM     14  C   UNL A   1      39.366 -37.519 -29.449  0.00  0.00    +0.027 A 
ATOM     15 BR   UNL A   1      40.488 -38.589 -28.344  0.00  0.00    -0.050 Br
ATOM     16  C   UNL A   1      37.962 -37.549 -29.354  0.00  0.00    -0.008 A 
ATOM     17  C   UNL A   1      37.262 -36.630 -30.150  0.00  0.00    +0.017 A 
ATOM     18  C   UNL A   1      37.260 -38.541 -28.443  0.00  0.00    +0.040 C 
ENDROOT
BRANCH   1  19
ATOM     19  C   UNL A   1      35.026 -39.544 -27.880  0.00  0.00    +0.133 C 
ATOM     20  S   UNL A   1      34.322 -41.061 -28.057  0.00  0.00    -0.019 S 
BRANCH  19  21
ATOM     21  N   UNL A   1      34.816 -38.745 -26.773  0.00  0.00    -0.323 N 
ATOM     22  H   UNL A   1      35.613 -38.432 -26.288  0.00  0.00    +0.000 HD
BRANCH  21  23
ATOM     23  C   UNL A   1      33.523 -38.325 -26.262  0.00  0.00    +0.029 C 
BRANCH  23  25
ATOM     24  C   UNL A   1      32.797 -36.254 -25.044  0.00  0.00    -0.101 C 
ATOM     25  C   UNL A   1      33.745 -37.141 -25.375  0.00  0.00    -0.074 C 
ENDBRANCH  23  25
ENDBRANCH  21  23
ENDBRANCH  19  21
ENDBRANCH   1  19
BRANCH   7  26
ATOM     26  O   UNL A   1      34.233 -32.557 -29.158  0.00  0.00    -0.388 OA
ATOM     27  H   UNL A   1      33.304 -32.297 -29.050  0.00  0.00    +0.000 HD
ENDBRANCH   7  26
BRANCH  12  28
ATOM     28  O   UNL A   1      40.073 -35.169 -32.125  0.00  0.00    -0.491 OA
ATOM     29  C   UNL A   1      41.302 -35.758 -32.529  0.00  0.00    +0.079 C 
ENDBRANCH  12  28
TORSDOF 6
ENDMDL
MODEL 2
REMARK VINA RESULT:    -7.514      1.405      2.197
REMARK INTER + INTRA:         -10.632
REMARK INTER:                 -10.260
REMARK INTRA:                  -0.373
REMARK UNBOUND:                -0.702
REMARK  Name = cpd306.pdb
REMARK  7 active torsions:
REMARK  status: ('A' for Active; 'I' for Inactive)
REMARK    1  A    between atoms: C_2  and  C_3
REMARK    2  A    between atoms: C_3  and  N_4
REMARK    3  A    between atoms: N_4  and  C_5
REMARK    4  A    between atoms: C_5  and  N_7
REMARK    5  A    between atoms: C_13  and  O_14
REMARK    6  A    between atoms: C_19  and  O_20
REMARK    7  A    between atoms: O_20  and  C_21
REMARK                            x       y       z     vdW  Elec       q    Type
REMARK                         _______ _______ _______ _____ _____    ______ ____
ROOT
ATOM      1  N   UNL A   1      35.940 -38.951 -28.857  0.00  0.00    -0.308 N 
ATOM      2  C   UNL A   1      35.688 -39.014 -30.301  0.00  0.00    +0.015 C 
ATOM      3  C   UNL A   1      35.230 -37.677 -30.902  0.00  0.00    -0.020 C 
ATOM      4  C   UNL A   1      35.889 -36.412 -30.296  0.00  0.00    +0.056 C 
ATOM      5  C   UNL A   1      35.189 -35.989 -29.012  0.00  0.00    -0.071 C 
ATOM      6  C   UNL A   1      34.500 -34.846 -28.860  0.00  0.00    -0.059 C 
ATOM      7  C   UNL A   1      34.427 -33.795 -29.912  0.00  0.00    +0.077 C 
ATOM      8  C   UNL A   1      35.667 -33.845 -30.789  0.00  0.00    +0.015 C 
ATOM      9  C   UNL A   1      35.914 -35.252 -31.346  0.00  0.00    +0.116 C 
ATOM     10  O   UNL A   1      37.218 -35.213 -31.970  0.00  0.00    -0.484 OA
ATOM     11  C   UNL A   1      38.054 -35.888 -31.115  0.00  0.00    +0.167 A 
ATOM     12  C   UNL A   1      39.436 -35.909 -31.213  0.00  0.00    +0.163 A 
ATOM     13  C   UNL A   1      40.128 -36.736 -30.326  0.00  0.00    -0.002 A 
ATOM     14  C   UNL A   1      39.446 -37.553 -29.407  0.00  0.00    +0.027 A 
ATOM     15 BR   UNL A   1      40.531 -38.629 -28.272  0.00  0.00    -0.050 Br
ATOM     16  C   UNL A   1      38.039 -37.568 -29.344  0.00  0.00    -0.008 A 
ATOM     17  C   UNL A   1      37.368 -36.645 -30.160  0.00  0.00    +0.017 A 
ATOM     18  C   UNL A   1      37.307 -38.548 -28.445  0.00  0.00    +0.040 C 
ENDROOT
BRANCH   1  19
ATOM     19  C   UNL A   1      35.050 -39.525 -27.928  0.00  0.00    +0.133 C 
ATOM     20  S   UNL A   1      33.985 -38.646 -26.970  0.00  0.00    -0.019 S 
BRANCH  19  21
ATOM     21  N   UNL A   1      35.133 -40.904 -27.885  0.00  0.00    -0.323 N 
ATOM     22  H   UNL A   1      35.958 -41.292 -27.513  0.00  0.00    +0.000 HD
BRANCH  21  23
ATOM     23  C   UNL A   1      34.112 -41.831 -28.339  0.00  0.00    +0.029 C 
BRANCH  23  25
ATOM     24  C   UNL A   1      34.324 -43.936 -26.990  0.00  0.00    -0.101 C 
ATOM     25  C   UNL A   1      33.772 -42.732 -27.195  0.00  0.00    -0.074 C 
ENDBRANCH  23  25
ENDBRANCH  21  23
ENDBRANCH  19  21
ENDBRANCH   1  19
BRANCH   7  26
ATOM     26  O   UNL A   1      34.359 -32.537 -29.256  0.00  0.00    -0.388 OA
ATOM     27  H   UNL A   1      33.468 -32.168 -29.356  0.00  0.00    +0.000 HD
ENDBRANCH   7  26
BRANCH  12  28
ATOM     28  O   UNL A   1      40.238 -35.223 -32.077  0.00  0.00    -0.491 OA
ATOM     29  C   UNL A   1      41.609 -35.593 -32.135  0.00  0.00    +0.079 C 
ENDBRANCH  12  28
TORSDOF 6
ENDMDL
MODEL 3
REMARK VINA RESULT:    -6.569     19.454     22.054
REMARK INTER + INTRA:          -9.383
REMARK INTER:                  -8.834
REMARK INTRA:                  -0.549
REMARK UNBOUND:                -0.702
REMARK  Name = cpd306.pdb
REMARK  7 active torsions:
REMARK  status: ('A' for Active; 'I' for Inactive)
REMARK    1  A    between atoms: C_2  and  C_3
REMARK    2  A    between atoms: C_3  and  N_4
REMARK    3  A    between atoms: N_4  and  C_5
REMARK    4  A    between atoms: C_5  and  N_7
REMARK    5  A    between atoms: C_13  and  O_14
REMARK    6  A    between atoms: C_19  and  O_20
REMARK    7  A    between atoms: O_20  and  C_21
REMARK                            x       y       z     vdW  Elec       q    Type
REMARK                         _______ _______ _______ _____ _____    ______ ____
ROOT
ATOM      1  N   UNL A   1      45.372 -20.876 -40.300  0.00  0.00    -0.308 N 
ATOM      2  C   UNL A   1      46.479 -21.418 -39.503  0.00  0.00    +0.015 C 
ATOM      3  C   UNL A   1      47.259 -20.345 -38.729  0.00  0.00    -0.020 C 
ATOM      4  C   UNL A   1      46.409 -19.180 -38.163  0.00  0.00    +0.056 C 
ATOM      5  C   UNL A   1      46.152 -18.120 -39.225  0.00  0.00    -0.071 C 
ATOM      6  C   UNL A   1      46.628 -16.865 -39.180  0.00  0.00    -0.059 C 
ATOM      7  C   UNL A   1      47.386 -16.324 -38.018  0.00  0.00    +0.077 C 
ATOM      8  C   UNL A   1      46.980 -17.048 -36.745  0.00  0.00    +0.015 C 
ATOM      9  C   UNL A   1      47.093 -18.570 -36.894  0.00  0.00    +0.116 C 
ATOM     10  O   UNL A   1      46.480 -19.135 -35.713  0.00  0.00    -0.484 OA
ATOM     11  C   UNL A   1      45.270 -19.631 -36.130  0.00  0.00    +0.167 A 
ATOM     12  C   UNL A   1      44.262 -20.069 -35.285  0.00  0.00    +0.163 A 
ATOM     13  C   UNL A   1      43.138 -20.647 -35.878  0.00  0.00    -0.002 A 
ATOM     14  C   UNL A   1      43.055 -20.824 -37.270  0.00  0.00    +0.027 A 
ATOM     15 BR   UNL A   1      41.461 -21.634 -37.923  0.00  0.00    -0.050 Br
ATOM     16  C   UNL A   1      44.104 -20.425 -38.122  0.00  0.00    -0.008 A 
ATOM     17  C   UNL A   1      45.171 -19.741 -37.520  0.00  0.00    +0.017 A 
ATOM     18  C   UNL A   1      44.068 -20.740 -39.607  0.00  0.00    +0.040 C 
ENDROOT
BRANCH   1  19
ATOM     19  C   UNL A   1      45.454 -20.779 -41.703  0.00  0.00    +0.133 C 
ATOM     20  S   UNL A   1      44.469 -19.791 -42.641  0.00  0.00    -0.019 S 
BRANCH  19  21
ATOM     21  N   UNL A   1      46.442 -21.581 -42.241  0.00  0.00    -0.323 N 
ATOM     22  H   UNL A   1      47.350 -21.204 -42.286  0.00  0.00    +0.000 HD
BRANCH  21  23
ATOM     23  C   UNL A   1      46.259 -22.929 -42.747  0.00  0.00    +0.029 C 
BRANCH  23  25
ATOM     24  C   UNL A   1      48.502 -23.247 -41.667  0.00  0.00    -0.101 C 
ATOM     25  C   UNL A   1      47.456 -23.733 -42.349  0.00  0.00    -0.074 C 
ENDBRANCH  23  25
ENDBRANCH  21  23
ENDBRANCH  19  21
ENDBRANCH   1  19
BRANCH   7  26
ATOM     26  O   UNL A   1      47.067 -14.944 -37.903  0.00  0.00    -0.388 OA
ATOM     27  H   UNL A   1      46.721 -14.766 -37.014  0.00  0.00    +0.000 HD
ENDBRANCH   7  26
BRANCH  12  28
ATOM     28  O   UNL A   1      44.212 -20.019 -33.923  0.00  0.00    -0.491 OA
ATOM     29  C   UNL A   1      43.854 -18.781 -33.324  0.00  0.00    +0.079 C 
ENDBRANCH  12  28
TORSDOF 6
ENDMDL
MODEL 4
REMARK VINA RESULT:    -6.482      3.914      5.897
REMARK INTER + INTRA:          -9.268
REMARK INTER:                  -8.219
REMARK INTRA:                  -1.049
REMARK UNBOUND:                -0.702
REMARK  Name = cpd306.pdb
REMARK  7 active torsions:
REMARK  status: ('A' for Active; 'I' for Inactive)
REMARK    1  A    between atoms: C_2  and  C_3
REMARK    2  A    between atoms: C_3  and  N_4
REMARK    3  A    between atoms: N_4  and  C_5
REMARK    4  A    between atoms: C_5  and  N_7
REMARK    5  A    between atoms: C_13  and  O_14
REMARK    6  A    between atoms: C_19  and  O_20
REMARK    7  A    between atoms: O_20  and  C_21
REMARK                            x       y       z     vdW  Elec       q    Type
REMARK                         _______ _______ _______ _____ _____    ______ ____
ROOT
ATOM      1  N   UNL A   1      34.746 -36.068 -31.150  0.00  0.00    -0.308 N 
ATOM      2  C   UNL A   1      35.941 -35.957 -30.305  0.00  0.00    +0.015 C 
ATOM      3  C   UNL A   1      35.626 -35.910 -28.802  0.00  0.00    -0.020 C 
ATOM      4  C   UNL A   1      34.443 -36.798 -28.340  0.00  0.00    +0.056 C 
ATOM      5  C   UNL A   1      33.111 -36.097 -28.565  0.00  0.00    -0.071 C 
ATOM      6  C   UNL A   1      32.282 -35.703 -27.584  0.00  0.00    -0.059 C 
ATOM      7  C   UNL A   1      32.523 -36.002 -26.146  0.00  0.00    +0.077 C 
ATOM      8  C   UNL A   1      33.344 -37.273 -26.006  0.00  0.00    +0.015 C 
ATOM      9  C   UNL A   1      34.627 -37.218 -26.844  0.00  0.00    +0.116 C 
ATOM     10  O   UNL A   1      35.194 -38.547 -26.797  0.00  0.00    -0.484 OA
ATOM     11  C   UNL A   1      34.943 -39.096 -28.029  0.00  0.00    +0.167 A 
ATOM     12  C   UNL A   1      35.122 -40.433 -28.350  0.00  0.00    +0.163 A 
ATOM     13  C   UNL A   1      34.923 -40.803 -29.682  0.00  0.00    -0.002 A 
ATOM     14  C   UNL A   1      34.606 -39.849 -30.665  0.00  0.00    +0.027 A 
ATOM     15 BR   UNL A   1      34.375 -40.510 -32.435  0.00  0.00    -0.050 Br
ATOM     16  C   UNL A   1      34.474 -38.484 -30.345  0.00  0.00    -0.008 A 
ATOM     17  C   UNL A   1      34.561 -38.150 -28.985  0.00  0.00    +0.017 A 
ATOM     18  C   UNL A   1      34.265 -37.443 -31.430  0.00  0.00    +0.040 C 
ENDROOT
BRANCH   1  19
ATOM     19  C   UNL A   1      34.268 -34.973 -31.895  0.00  0.00    +0.133 C 
ATOM     20  S   UNL A   1      32.856 -34.995 -32.808  0.00  0.00    -0.019 S 
BRANCH  19  21
ATOM     21  N   UNL A   1      35.080 -33.859 -31.798  0.00  0.00    -0.323 N 
ATOM     22  H   UNL A   1      36.023 -33.968 -32.057  0.00  0.00    +0.000 HD
BRANCH  21  23
ATOM     23  C   UNL A   1      34.665 -32.544 -31.346  0.00  0.00    +0.029 C 
BRANCH  23  25
ATOM     24  C   UNL A   1      32.883 -32.483 -29.580  0.00  0.00    -0.101 C 
ATOM     25  C   UNL A   1      34.157 -32.680 -29.946  0.00  0.00    -0.074 C 
ENDBRANCH  23  25
ENDBRANCH  21  23
ENDBRANCH  19  21
ENDBRANCH   1  19
BRANCH   7  26
ATOM     26  O   UNL A   1      31.257 -36.182 -25.527  0.00  0.00    -0.388 OA
ATOM     27  H   UNL A   1      30.921 -37.069 -25.731  0.00  0.00    +0.000 HD
ENDBRANCH   7  26
BRANCH  12  28
ATOM     28  O   UNL A   1      35.478 -41.464 -27.532  0.00  0.00    -0.491 OA
ATOM     29  C   UNL A   1      34.901 -42.737 -27.790  0.00  0.00    +0.079 C 
ENDBRANCH  12  28
TORSDOF 6
ENDMDL
MODEL 5
REMARK VINA RESULT:    -6.451      3.356      5.279
REMARK INTER + INTRA:          -9.228
REMARK INTER:                  -8.592
REMARK INTRA:                  -0.636
REMARK UNBOUND:                -0.702
REMARK  Name = cpd306.pdb
REMARK  7 active torsions:
REMARK  status: ('A' for Active; 'I' for Inactive)
REMARK    1  A    between atoms: C_2  and  C_3
REMARK    2  A    between atoms: C_3  and  N_4
REMARK    3  A    between atoms: N_4  and  C_5
REMARK    4  A    between atoms: C_5  and  N_7
REMARK    5  A    between atoms: C_13  and  O_14
REMARK    6  A    between atoms: C_19  and  O_20
REMARK    7  A    between atoms: O_20  and  C_21
REMARK                            x       y       z     vdW  Elec       q    Type
REMARK                         _______ _______ _______ _____ _____    ______ ____
ROOT
ATOM      1  N   UNL A   1      34.191 -35.394 -30.219  0.00  0.00    -0.308 N 
ATOM      2  C   UNL A   1      34.320 -35.416 -28.758  0.00  0.00    +0.015 C 
ATOM      3  C   UNL A   1      34.237 -36.827 -28.156  0.00  0.00    -0.020 C 
ATOM      4  C   UNL A   1      34.892 -37.951 -28.999  0.00  0.00    +0.056 C 
ATOM      5  C   UNL A   1      33.950 -38.441 -30.089  0.00  0.00    -0.071 C 
ATOM      6  C   UNL A   1      33.420 -39.674 -30.141  0.00  0.00    -0.059 C 
ATOM      7  C   UNL A   1      33.781 -40.756 -29.183  0.00  0.00    +0.077 C 
ATOM      8  C   UNL A   1      35.186 -40.534 -28.649  0.00  0.00    +0.015 C 
ATOM      9  C   UNL A   1      35.362 -39.123 -28.075  0.00  0.00    +0.116 C 
ATOM     10  O   UNL A   1      36.775 -38.972 -27.808  0.00  0.00    -0.484 OA
ATOM     11  C   UNL A   1      37.249 -38.147 -28.797  0.00  0.00    +0.167 A 
ATOM     12  C   UNL A   1      38.590 -37.908 -29.053  0.00  0.00    +0.163 A 
ATOM     13  C   UNL A   1      38.895 -36.954 -30.026  0.00  0.00    -0.002 A 
ATOM     14  C   UNL A   1      37.884 -36.230 -30.681  0.00  0.00    +0.027 A 
ATOM     15 BR   UNL A   1      38.463 -34.959 -31.975  0.00  0.00    -0.050 Br
ATOM     16  C   UNL A   1      36.524 -36.438 -30.382  0.00  0.00    -0.008 A 
ATOM     17  C   UNL A   1      36.233 -37.481 -29.489  0.00  0.00    +0.017 A 
ATOM     18  C   UNL A   1      35.446 -35.561 -30.993  0.00  0.00    +0.040 C 
ENDROOT
BRANCH   1  19
ATOM     19  C   UNL A   1      33.015 -34.942 -30.847  0.00  0.00    +0.133 C 
ATOM     20  S   UNL A   1      32.350 -35.638 -32.225  0.00  0.00    -0.019 S 
BRANCH  19  21
ATOM     21  N   UNL A   1      32.446 -33.857 -30.207  0.00  0.00    -0.323 N 
ATOM     22  H   UNL A   1      32.080 -34.009 -29.306  0.00  0.00    +0.000 HD
BRANCH  21  23
ATOM     23  C   UNL A   1      32.340 -32.513 -30.746  0.00  0.00    +0.029 C 
BRANCH  23  25
ATOM     24  C   UNL A   1      34.681 -31.899 -31.409  0.00  0.00    -0.101 C 
ATOM     25  C   UNL A   1      33.658 -31.835 -30.546  0.00  0.00    -0.074 C 
ENDBRANCH  23  25
ENDBRANCH  21  23
ENDBRANCH  19  21
ENDBRANCH   1  19
BRANCH   7  26
ATOM     26  O   UNL A   1      33.728 -41.988 -29.887  0.00  0.00    -0.388 OA
ATOM     27  H   UNL A   1      33.636 -42.718 -29.255  0.00  0.00    +0.000 HD
ENDBRANCH   7  26
BRANCH  12  28
ATOM     28  O   UNL A   1      39.682 -38.482 -28.473  0.00  0.00    -0.491 OA
ATOM     29  C   UNL A   1      40.937 -38.306 -29.116  0.00  0.00    +0.079 C 
ENDBRANCH  12  28
TORSDOF 6
ENDMDL
MODEL 6
REMARK VINA RESULT:    -6.312     21.546     23.938
REMARK INTER + INTRA:          -9.043
REMARK INTER:                  -8.518
REMARK INTRA:                  -0.525
REMARK UNBOUND:                -0.702
REMARK  Name = cpd306.pdb
REMARK  7 active torsions:
REMARK  status: ('A' for Active; 'I' for Inactive)
REMARK    1  A    between atoms: C_2  and  C_3
REMARK    2  A    between atoms: C_3  and  N_4
REMARK    3  A    between atoms: N_4  and  C_5
REMARK    4  A    between atoms: C_5  and  N_7
REMARK    5  A    between atoms: C_13  and  O_14
REMARK    6  A    between atoms: C_19  and  O_20
REMARK    7  A    between atoms: O_20  and  C_21
REMARK                            x       y       z     vdW  Elec       q    Type
REMARK                         _______ _______ _______ _____ _____    ______ ____
ROOT
ATOM      1  N   UNL A   1      45.638 -18.469 -40.613  0.00  0.00    -0.308 N 
ATOM      2  C   UNL A   1      44.496 -17.880 -39.903  0.00  0.00    +0.015 C 
ATOM      3  C   UNL A   1      44.545 -18.092 -38.383  0.00  0.00    -0.020 C 
ATOM      4  C   UNL A   1      45.956 -18.029 -37.745  0.00  0.00    +0.056 C 
ATOM      5  C   UNL A   1      46.678 -19.362 -37.879  0.00  0.00    -0.071 C 
ATOM      6  C   UNL A   1      47.015 -20.154 -36.847  0.00  0.00    -0.059 C 
ATOM      7  C   UNL A   1      46.812 -19.765 -35.424  0.00  0.00    +0.077 C 
ATOM      8  C   UNL A   1      46.839 -18.253 -35.285  0.00  0.00    +0.015 C 
ATOM      9  C   UNL A   1      45.861 -17.573 -36.251  0.00  0.00    +0.116 C 
ATOM     10  O   UNL A   1      46.141 -16.157 -36.175  0.00  0.00    -0.484 OA
ATOM     11  C   UNL A   1      46.804 -15.851 -37.336  0.00  0.00    +0.167 A 
ATOM     12  C   UNL A   1      47.449 -14.650 -37.586  0.00  0.00    +0.163 A 
ATOM     13  C   UNL A   1      47.981 -14.463 -38.863  0.00  0.00    -0.002 A 
ATOM     14  C   UNL A   1      47.823 -15.432 -39.869  0.00  0.00    +0.027 A 
ATOM     15 BR   UNL A   1      48.598 -15.025 -41.559  0.00  0.00    -0.050 Br
ATOM     16  C   UNL A   1      47.123 -16.630 -39.628  0.00  0.00    -0.008 A 
ATOM     17  C   UNL A   1      46.699 -16.851 -38.308  0.00  0.00    +0.017 A 
ATOM     18  C   UNL A   1      46.840 -17.610 -40.752  0.00  0.00    +0.040 C 
ENDROOT
BRANCH   1  19
ATOM     19  C   UNL A   1      45.503 -19.645 -41.376  0.00  0.00    +0.133 C 
ATOM     20  S   UNL A   1      44.368 -19.854 -42.599  0.00  0.00    -0.019 S 
BRANCH  19  21
ATOM     21  N   UNL A   1      46.412 -20.623 -41.022  0.00  0.00    -0.323 N 
ATOM     22  H   UNL A   1      47.364 -20.428 -41.176  0.00  0.00    +0.000 HD
BRANCH  21  23
ATOM     23  C   UNL A   1      46.087 -21.914 -40.444  0.00  0.00    +0.029 C 
BRANCH  23  25
ATOM     24  C   UNL A   1      48.009 -22.987 -41.650  0.00  0.00    -0.101 C 
ATOM     25  C   UNL A   1      46.716 -22.969 -41.298  0.00  0.00    -0.074 C 
ENDBRANCH  23  25
ENDBRANCH  21  23
ENDBRANCH  19  21
ENDBRANCH   1  19
BRANCH   7  26
ATOM     26  O   UNL A   1      47.873 -20.332 -34.668  0.00  0.00    -0.388 OA
ATOM     27  H   UNL A   1      48.484 -20.791 -35.265  0.00  0.00    +0.000 HD
ENDBRANCH   7  26
BRANCH  12  28
ATOM     28  O   UNL A   1      47.639 -13.595 -36.742  0.00  0.00    -0.491 OA
ATOM     29  C   UNL A   1      46.596 -12.636 -36.644  0.00  0.00    +0.079 C 
ENDBRANCH  12  28
TORSDOF 6
ENDMDL
MODEL 7
REMARK VINA RESULT:    -6.277     17.740     20.498
REMARK INTER + INTRA:          -8.997
REMARK INTER:                  -8.054
REMARK INTRA:                  -0.943
REMARK UNBOUND:                -0.702
REMARK  Name = cpd306.pdb
REMARK  7 active torsions:
REMARK  status: ('A' for Active; 'I' for Inactive)
REMARK    1  A    between atoms: C_2  and  C_3
REMARK    2  A    between atoms: C_3  and  N_4
REMARK    3  A    between atoms: N_4  and  C_5
REMARK    4  A    between atoms: C_5  and  N_7
REMARK    5  A    between atoms: C_13  and  O_14
REMARK    6  A    between atoms: C_19  and  O_20
REMARK    7  A    between atoms: O_20  and  C_21
REMARK                            x       y       z     vdW  Elec       q    Type
REMARK                         _______ _______ _______ _____ _____    ______ ____
ROOT
ATOM      1  N   UNL A   1      44.343 -18.805 -38.992  0.00  0.00    -0.308 N 
ATOM      2  C   UNL A   1      43.158 -17.998 -38.676  0.00  0.00    +0.015 C 
ATOM      3  C   UNL A   1      41.848 -18.798 -38.698  0.00  0.00    -0.020 C 
ATOM      4  C   UNL A   1      41.944 -20.252 -38.170  0.00  0.00    +0.056 C 
ATOM      5  C   UNL A   1      42.452 -21.196 -39.251  0.00  0.00    -0.071 C 
ATOM      6  C   UNL A   1      41.729 -22.188 -39.797  0.00  0.00    -0.059 C 
ATOM      7  C   UNL A   1      40.363 -22.552 -39.329  0.00  0.00    +0.077 C 
ATOM      8  C   UNL A   1      40.197 -22.184 -37.865  0.00  0.00    +0.015 C 
ATOM      9  C   UNL A   1      40.564 -20.719 -37.599  0.00  0.00    +0.116 C 
ATOM     10  O   UNL A   1      40.574 -20.562 -36.162  0.00  0.00    -0.484 OA
ATOM     11  C   UNL A   1      41.899 -20.494 -35.810  0.00  0.00    +0.167 A 
ATOM     12  C   UNL A   1      42.376 -20.558 -34.510  0.00  0.00    +0.163 A 
ATOM     13  C   UNL A   1      43.745 -20.362 -34.321  0.00  0.00    -0.002 A 
ATOM     14  C   UNL A   1      44.595 -20.061 -35.399  0.00  0.00    +0.027 A 
ATOM     15 BR   UNL A   1      46.435 -19.814 -34.976  0.00  0.00    -0.050 Br
ATOM     16  C   UNL A   1      44.100 -19.946 -36.712  0.00  0.00    -0.008 A 
ATOM     17  C   UNL A   1      42.745 -20.261 -36.898  0.00  0.00    +0.017 A 
ATOM     18  C   UNL A   1      44.996 -19.489 -37.849  0.00  0.00    +0.040 C 
ENDROOT
BRANCH   1  19
ATOM     19  C   UNL A   1      44.997 -18.696 -40.234  0.00  0.00    +0.133 C 
ATOM     20  S   UNL A   1      44.318 -17.996 -41.603  0.00  0.00    -0.019 S 
BRANCH  19  21
ATOM     21  N   UNL A   1      46.275 -19.223 -40.217  0.00  0.00    -0.323 N 
ATOM     22  H   UNL A   1      46.850 -18.979 -39.456  0.00  0.00    +0.000 HD
BRANCH  21  23
ATOM     23  C   UNL A   1      46.844 -20.103 -41.221  0.00  0.00    +0.029 C 
BRANCH  23  25
ATOM     24  C   UNL A   1      46.116 -22.220 -40.086  0.00  0.00    -0.101 C 
ATOM     25  C   UNL A   1      46.115 -21.407 -41.151  0.00  0.00    -0.074 C 
ENDBRANCH  23  25
ENDBRANCH  21  23
ENDBRANCH  19  21
ENDBRANCH   1  19
BRANCH   7  26
ATOM     26  O   UNL A   1      40.216 -23.956 -39.487  0.00  0.00    -0.388 OA
ATOM     27  H   UNL A   1      39.398 -24.246 -39.054  0.00  0.00    +0.000 HD
ENDBRANCH   7  26
BRANCH  12  28
ATOM     28  O   UNL A   1      41.680 -20.786 -33.359  0.00  0.00    -0.491 OA
ATOM     29  C   UNL A   1      41.318 -22.129 -33.066  0.00  0.00    +0.079 C 
ENDBRANCH  12  28
TORSDOF 6
ENDMDL
MODEL 8
REMARK VINA RESULT:    -6.214     17.139     19.562
REMARK INTER + INTRA:          -8.914
REMARK INTER:                  -8.339
REMARK INTRA:                  -0.575
REMARK UNBOUND:                -0.702
REMARK  Name = cpd306.pdb
REMARK  7 active torsions:
REMARK  status: ('A' for Active; 'I' for Inactive)
REMARK    1  A    between atoms: C_2  and  C_3
REMARK    2  A    between atoms: C_3  and  N_4
REMARK    3  A    between atoms: N_4  and  C_5
REMARK    4  A    between atoms: C_5  and  N_7
REMARK    5  A    between atoms: C_13  and  O_14
REMARK    6  A    between atoms: C_19  and  O_20
REMARK    7  A    between atoms: O_20  and  C_21
REMARK                            x       y       z     vdW  Elec       q    Type
REMARK                         _______ _______ _______ _____ _____    ______ ____
ROOT
ATOM      1  N   UNL A   1      41.664 -20.328 -35.563  0.00  0.00    -0.308 N 
ATOM      2  C   UNL A   1      41.798 -18.899 -35.869  0.00  0.00    +0.015 C 
ATOM      3  C   UNL A   1      43.244 -18.388 -35.784  0.00  0.00    -0.020 C 
ATOM      4  C   UNL A   1      44.332 -19.379 -36.270  0.00  0.00    +0.056 C 
ATOM      5  C   UNL A   1      44.698 -20.373 -35.176  0.00  0.00    -0.071 C 
ATOM      6  C   UNL A   1      45.899 -20.440 -34.579  0.00  0.00    -0.059 C 
ATOM      7  C   UNL A   1      47.063 -19.610 -34.995  0.00  0.00    +0.077 C 
ATOM      8  C   UNL A   1      46.944 -19.243 -36.465  0.00  0.00    +0.015 C 
ATOM      9  C   UNL A   1      45.589 -18.602 -36.786  0.00  0.00    +0.116 C 
ATOM     10  O   UNL A   1      45.521 -18.506 -38.227  0.00  0.00    -0.484 OA
ATOM     11  C   UNL A   1      44.648 -19.489 -38.619  0.00  0.00    +0.167 A 
ATOM     12  C   UNL A   1      44.452 -19.895 -39.930  0.00  0.00    +0.163 A 
ATOM     13  C   UNL A   1      43.444 -20.832 -40.165  0.00  0.00    -0.002 A 
ATOM     14  C   UNL A   1      42.629 -21.305 -39.122  0.00  0.00    +0.027 A 
ATOM     15 BR   UNL A   1      41.295 -22.574 -39.606  0.00  0.00    -0.050 Br
ATOM     16  C   UNL A   1      42.797 -20.853 -37.799  0.00  0.00    -0.008 A 
ATOM     17  C   UNL A   1      43.888 -20.002 -37.564  0.00  0.00    +0.017 A 
ATOM     18  C   UNL A   1      41.830 -21.263 -36.703  0.00  0.00    +0.040 C 
ENDROOT
BRANCH   1  19
ATOM     19  C   UNL A   1      41.114 -20.772 -34.345  0.00  0.00    +0.133 C 
ATOM     20  S   UNL A   1      40.366 -19.767 -33.224  0.00  0.00    -0.019 S 
BRANCH  19  21
ATOM     21  N   UNL A   1      41.245 -22.135 -34.160  0.00  0.00    -0.323 N 
ATOM     22  H   UNL A   1      42.134 -22.526 -34.321  0.00  0.00    +0.000 HD
BRANCH  21  23
ATOM     23  C   UNL A   1      40.188 -23.042 -33.749  0.00  0.00    +0.029 C 
BRANCH  23  25
ATOM     24  C   UNL A   1      41.325 -23.216 -31.519  0.00  0.00    -0.101 C 
ATOM     25  C   UNL A   1      40.664 -23.780 -32.539  0.00  0.00    -0.074 C 
ENDBRANCH  23  25
ENDBRANCH  21  23
ENDBRANCH  19  21
ENDBRANCH   1  19
BRANCH   7  26
ATOM     26  O   UNL A   1      48.237 -20.383 -34.791  0.00  0.00    -0.388 OA
ATOM     27  H   UNL A   1      48.562 -20.243 -33.888  0.00  0.00    +0.000 HD
ENDBRANCH   7  26
BRANCH  12  28
ATOM     28  O   UNL A   1      45.115 -19.496 -41.053  0.00  0.00    -0.491 OA
ATOM     29  C   UNL A   1      46.184 -20.313 -41.509  0.00  0.00    +0.079 C 
ENDBRANCH  12  28
TORSDOF 6
ENDMDL
MODEL 9
REMARK VINA RESULT:    -6.172      3.639      6.526
REMARK INTER + INTRA:          -8.858
REMARK INTER:                  -8.361
REMARK INTRA:                  -0.497
REMARK UNBOUND:                -0.702
REMARK  Name = cpd306.pdb
REMARK  7 active torsions:
REMARK  status: ('A' for Active; 'I' for Inactive)
REMARK    1  A    between atoms: C_2  and  C_3
REMARK    2  A    between atoms: C_3  and  N_4
REMARK    3  A    between atoms: N_4  and  C_5
REMARK    4  A    between atoms: C_5  and  N_7
REMARK    5  A    between atoms: C_13  and  O_14
REMARK    6  A    between atoms: C_19  and  O_20
REMARK    7  A    between atoms: O_20  and  C_21
REMARK                            x       y       z     vdW  Elec       q    Type
REMARK                         _______ _______ _______ _____ _____    ______ ____
ROOT
ATOM      1  N   UNL A   1      36.178 -37.037 -30.202  0.00  0.00    -0.308 N 
ATOM      2  C   UNL A   1      37.049 -37.365 -29.067  0.00  0.00    +0.015 C 
ATOM      3  C   UNL A   1      36.362 -37.210 -27.703  0.00  0.00    -0.020 C 
ATOM      4  C   UNL A   1      34.866 -37.611 -27.659  0.00  0.00    +0.056 C 
ATOM      5  C   UNL A   1      33.978 -36.477 -28.152  0.00  0.00    -0.071 C 
ATOM      6  C   UNL A   1      33.097 -35.811 -27.387  0.00  0.00    -0.059 C 
ATOM      7  C   UNL A   1      32.806 -36.179 -25.973  0.00  0.00    +0.077 C 
ATOM      8  C   UNL A   1      33.062 -37.660 -25.755  0.00  0.00    +0.015 C 
ATOM      9  C   UNL A   1      34.465 -38.071 -26.218  0.00  0.00    +0.116 C 
ATOM     10  O   UNL A   1      34.499 -39.515 -26.161  0.00  0.00    -0.484 OA
ATOM     11  C   UNL A   1      34.430 -39.936 -27.465  0.00  0.00    +0.167 A 
ATOM     12  C   UNL A   1      34.219 -41.247 -27.864  0.00  0.00    +0.163 A 
ATOM     13  C   UNL A   1      34.287 -41.518 -29.231  0.00  0.00    -0.002 A 
ATOM     14  C   UNL A   1      34.608 -40.513 -30.160  0.00  0.00    +0.027 A 
ATOM     15 BR   UNL A   1      34.669 -41.045 -31.987  0.00  0.00    -0.050 Br
ATOM     16  C   UNL A   1      34.873 -39.193 -29.748  0.00  0.00    -0.008 A 
ATOM     17  C   UNL A   1      34.684 -38.914 -28.385  0.00  0.00    +0.017 A 
ATOM     18  C   UNL A   1      35.350 -38.145 -30.738  0.00  0.00    +0.040 C 
ENDROOT
BRANCH   1  19
ATOM     19  C   UNL A   1      36.338 -35.843 -30.931  0.00  0.00    +0.133 C 
ATOM     20  S   UNL A   1      35.462 -34.436 -30.645  0.00  0.00    -0.019 S 
BRANCH  19  21
ATOM     21  N   UNL A   1      37.304 -35.937 -31.915  0.00  0.00    -0.323 N 
ATOM     22  H   UNL A   1      37.198 -36.656 -32.579  0.00  0.00    +0.000 HD
BRANCH  21  23
ATOM     23  C   UNL A   1      38.460 -35.071 -32.055  0.00  0.00    +0.029 C 
BRANCH  23  25
ATOM     24  C   UNL A   1      40.102 -36.778 -31.228  0.00  0.00    -0.101 C 
ATOM     25  C   UNL A   1      39.670 -35.940 -32.180  0.00  0.00    -0.074 C 
ENDBRANCH  23  25
ENDBRANCH  21  23
ENDBRANCH  19  21
ENDBRANCH   1  19
BRANCH   7  26
ATOM     26  O   UNL A   1      31.437 -35.891 -25.729  0.00  0.00    -0.388 OA
ATOM     27  H   UNL A   1      31.040 -35.505 -26.526  0.00  0.00    +0.000 HD
ENDBRANCH   7  26
BRANCH  12  28
ATOM     28  O   UNL A   1      33.951 -42.338 -27.091  0.00  0.00    -0.491 OA
ATOM     29  C   UNL A   1      32.591 -42.604 -26.778  0.00  0.00    +0.079 C 
ENDBRANCH  12  28
TORSDOF 6
ENDMDL
MODEL 10
REMARK VINA RESULT:    -6.154     17.269     19.830
REMARK INTER + INTRA:          -8.835
REMARK INTER:                  -8.390
REMARK INTRA:                  -0.445
REMARK UNBOUND:                -0.702
REMARK  Name = cpd306.pdb
REMARK  7 active torsions:
REMARK  status: ('A' for Active; 'I' for Inactive)
REMARK    1  A    between atoms: C_2  and  C_3
REMARK    2  A    between atoms: C_3  and  N_4
REMARK    3  A    between atoms: N_4  and  C_5
REMARK    4  A    between atoms: C_5  and  N_7
REMARK    5  A    between atoms: C_13  and  O_14
REMARK    6  A    between atoms: C_19  and  O_20
REMARK    7  A    between atoms: O_20  and  C_21
REMARK                            x       y       z     vdW  Elec       q    Type
REMARK                         _______ _______ _______ _____ _____    ______ ____
ROOT
ATOM      1  N   UNL A   1      42.662 -20.092 -38.130  0.00  0.00    -0.308 N 
ATOM      2  C   UNL A   1      41.797 -19.013 -37.637  0.00  0.00    +0.015 C 
ATOM      3  C   UNL A   1      40.910 -19.430 -36.455  0.00  0.00    -0.020 C 
ATOM      4  C   UNL A   1      41.560 -20.410 -35.446  0.00  0.00    +0.056 C 
ATOM      5  C   UNL A   1      41.459 -21.848 -35.933  0.00  0.00    -0.071 C 
ATOM      6  C   UNL A   1      40.740 -22.809 -35.329  0.00  0.00    -0.059 C 
ATOM      7  C   UNL A   1      40.033 -22.603 -34.035  0.00  0.00    +0.077 C 
ATOM      8  C   UNL A   1      40.731 -21.527 -33.222  0.00  0.00    +0.015 C 
ATOM      9  C   UNL A   1      40.922 -20.236 -34.027  0.00  0.00    +0.116 C 
ATOM     10  O   UNL A   1      41.777 -19.388 -33.229  0.00  0.00    -0.484 OA
ATOM     11  C   UNL A   1      43.005 -19.424 -33.842  0.00  0.00    +0.167 A 
ATOM     12  C   UNL A   1      44.177 -18.925 -33.295  0.00  0.00    +0.163 A 
ATOM     13  C   UNL A   1      45.317 -18.945 -34.100  0.00  0.00    -0.002 A 
ATOM     14  C   UNL A   1      45.266 -19.404 -35.428  0.00  0.00    +0.027 A 
ATOM     15 BR   UNL A   1      46.903 -19.359 -36.398  0.00  0.00    -0.050 Br
ATOM     16  C   UNL A   1      44.062 -19.862 -35.998  0.00  0.00    -0.008 A 
ATOM     17  C   UNL A   1      42.956 -19.945 -35.138  0.00  0.00    +0.017 A 
ATOM     18  C   UNL A   1      43.983 -20.229 -37.469  0.00  0.00    +0.040 C 
ENDROOT
BRANCH   1  19
ATOM     19  C   UNL A   1      42.393 -20.755 -39.343  0.00  0.00    +0.133 C 
ATOM     20  S   UNL A   1      41.112 -21.818 -39.576  0.00  0.00    -0.019 S 
BRANCH  19  21
ATOM     21  N   UNL A   1      43.294 -20.437 -40.341  0.00  0.00    -0.323 N 
ATOM     22  H   UNL A   1      43.315 -19.501 -40.646  0.00  0.00    +0.000 HD
BRANCH  21  23
ATOM     23  C   UNL A   1      44.213 -21.361 -40.981  0.00  0.00    +0.029 C 
BRANCH  23  25
ATOM     24  C   UNL A   1      44.302 -19.800 -42.944  0.00  0.00    -0.101 C 
ATOM     25  C   UNL A   1      44.241 -21.041 -42.442  0.00  0.00    -0.074 C 
ENDBRANCH  23  25
ENDBRANCH  21  23
ENDBRANCH  19  21
ENDBRANCH   1  19
BRANCH   7  26
ATOM     26  O   UNL A   1      40.068 -23.834 -33.326  0.00  0.00    -0.388 OA
ATOM     27  H   UNL A   1      40.903 -24.290 -33.514  0.00  0.00    +0.000 HD
ENDBRANCH   7  26
BRANCH  12  28
ATOM     28  O   UNL A   1      44.380 -18.400 -32.053  0.00  0.00    -0.491 OA
ATOM     29  C   UNL A   1      45.197 -17.242 -31.955  0.00  0.00    +0.079 C 
ENDBRANCH  12  28
TORSDOF 6
ENDMDL
MODEL 11
REMARK VINA RESULT:    -6.142      3.376      6.291
REMARK INTER + INTRA:          -8.819
REMARK INTER:                  -8.200
REMARK INTRA:                  -0.619
REMARK UNBOUND:                -0.702
REMARK  Name = cpd306.pdb
REMARK  7 active torsions:
REMARK  status: ('A' for Active; 'I' for Inactive)
REMARK    1  A    between atoms: C_2  and  C_3
REMARK    2  A    between atoms: C_3  and  N_4
REMARK    3  A    between atoms: N_4  and  C_5
REMARK    4  A    between atoms: C_5  and  N_7
REMARK    5  A    between atoms: C_13  and  O_14
REMARK    6  A    between atoms: C_19  and  O_20
REMARK    7  A    between atoms: O_20  and  C_21
REMARK                            x       y       z     vdW  Elec       q    Type
REMARK                         _______ _______ _______ _____ _____    ______ ____
ROOT
ATOM      1  N   UNL A   1      35.342 -37.250 -29.720  0.00  0.00    -0.308 N 
ATOM      2  C   UNL A   1      34.425 -36.868 -28.640  0.00  0.00    +0.015 C 
ATOM      3  C   UNL A   1      33.989 -35.396 -28.699  0.00  0.00    -0.020 C 
ATOM      4  C   UNL A   1      33.777 -34.819 -30.122  0.00  0.00    +0.056 C 
ATOM      5  C   UNL A   1      35.097 -34.375 -30.736  0.00  0.00    -0.071 C 
ATOM      6  C   UNL A   1      35.412 -33.103 -31.029  0.00  0.00    -0.059 C 
ATOM      7  C   UNL A   1      34.454 -31.973 -30.881  0.00  0.00    +0.077 C 
ATOM      8  C   UNL A   1      33.027 -32.475 -31.029  0.00  0.00    +0.015 C 
ATOM      9  C   UNL A   1      32.736 -33.651 -30.089  0.00  0.00    +0.116 C 
ATOM     10  O   UNL A   1      31.443 -34.166 -30.479  0.00  0.00    -0.484 OA
ATOM     11  C   UNL A   1      31.700 -35.338 -31.144  0.00  0.00    +0.167 A 
ATOM     12  C   UNL A   1      30.765 -36.054 -31.876  0.00  0.00    +0.163 A 
ATOM     13  C   UNL A   1      31.167 -37.285 -32.398  0.00  0.00    -0.002 A 
ATOM     14  C   UNL A   1      32.451 -37.800 -32.147  0.00  0.00    +0.027 A 
ATOM     15 BR   UNL A   1      32.844 -39.494 -32.921  0.00  0.00    -0.050 Br
ATOM     16  C   UNL A   1      33.382 -37.094 -31.361  0.00  0.00    -0.008 A 
ATOM     17  C   UNL A   1      33.001 -35.809 -30.944  0.00  0.00    +0.017 A 
ATOM     18  C   UNL A   1      34.715 -37.714 -30.982  0.00  0.00    +0.040 C 
ENDROOT
BRANCH   1  19
ATOM     19  C   UNL A   1      36.714 -37.458 -29.480  0.00  0.00    +0.133 C 
ATOM     20  S   UNL A   1      37.351 -37.974 -28.012  0.00  0.00    -0.019 S 
BRANCH  19  21
ATOM     21  N   UNL A   1      37.499 -37.200 -30.588  0.00  0.00    -0.323 N 
ATOM     22  H   UNL A   1      37.228 -37.619 -31.437  0.00  0.00    +0.000 HD
BRANCH  21  23
ATOM     23  C   UNL A   1      38.687 -36.367 -30.611  0.00  0.00    +0.029 C 
BRANCH  23  25
ATOM     24  C   UNL A   1      40.088 -35.782 -32.609  0.00  0.00    -0.101 C 
ATOM     25  C   UNL A   1      38.892 -35.901 -32.017  0.00  0.00    -0.074 C 
ENDBRANCH  23  25
ENDBRANCH  21  23
ENDBRANCH  19  21
ENDBRANCH   1  19
BRANCH   7  26
ATOM     26  O   UNL A   1      34.736 -31.034 -31.909  0.00  0.00    -0.388 OA
ATOM     27  H   UNL A   1      34.332 -31.331 -32.739  0.00  0.00    +0.000 HD
ENDBRANCH   7  26
BRANCH  12  28
ATOM     28  O   UNL A   1      29.473 -35.722 -32.162  0.00  0.00    -0.491 OA
ATOM     29  C   UNL A   1      28.477 -36.080 -31.215  0.00  0.00    +0.079 C 
ENDBRANCH  12  28
TORSDOF 6
ENDMDL
MODEL 12
REMARK VINA RESULT:    -6.132     17.927     20.442
REMARK INTER + INTRA:          -8.805
REMARK INTER:                  -7.773
REMARK INTRA:                  -1.032
REMARK UNBOUND:                -0.702
REMARK  Name = cpd306.pdb
REMARK  7 active torsions:
REMARK  status: ('A' for Active; 'I' for Inactive)
REMARK    1  A    between atoms: C_2  and  C_3
REMARK    2  A    between atoms: C_3  and  N_4
REMARK    3  A    between atoms: N_4  and  C_5
REMARK    4  A    between atoms: C_5  and  N_7
REMARK    5  A    between atoms: C_13  and  O_14
REMARK    6  A    between atoms: C_19  and  O_20
REMARK    7  A    between atoms: O_20  and  C_21
REMARK                            x       y       z     vdW  Elec       q    Type
REMARK                         _______ _______ _______ _____ _____    ______ ____
ROOT
ATOM      1  N   UNL A   1      41.749 -18.803 -38.462  0.00  0.00    -0.308 N 
ATOM      2  C   UNL A   1      42.796 -17.786 -38.621  0.00  0.00    +0.015 C 
ATOM      3  C   UNL A   1      43.962 -17.949 -37.635  0.00  0.00    -0.020 C 
ATOM      4  C   UNL A   1      44.360 -19.410 -37.307  0.00  0.00    +0.056 C 
ATOM      5  C   UNL A   1      43.462 -19.993 -36.225  0.00  0.00    -0.071 C 
ATOM      6  C   UNL A   1      43.878 -20.345 -34.997  0.00  0.00    -0.059 C 
ATOM      7  C   UNL A   1      45.307 -20.304 -34.579  0.00  0.00    +0.077 C 
ATOM      8  C   UNL A   1      46.211 -20.481 -35.788  0.00  0.00    +0.015 C 
ATOM      9  C   UNL A   1      45.870 -19.488 -36.905  0.00  0.00    +0.116 C 
ATOM     10  O   UNL A   1      46.641 -19.901 -38.057  0.00  0.00    -0.484 OA
ATOM     11  C   UNL A   1      45.738 -20.486 -38.911  0.00  0.00    +0.167 A 
ATOM     12  C   UNL A   1      46.077 -21.214 -40.041  0.00  0.00    +0.163 A 
ATOM     13  C   UNL A   1      45.031 -21.646 -40.859  0.00  0.00    -0.002 A 
ATOM     14  C   UNL A   1      43.696 -21.313 -40.575  0.00  0.00    +0.027 A 
ATOM     15 BR   UNL A   1      42.387 -21.971 -41.791  0.00  0.00    -0.050 Br
ATOM     16  C   UNL A   1      43.359 -20.530 -39.453  0.00  0.00    -0.008 A 
ATOM     17  C   UNL A   1      44.409 -20.205 -38.581  0.00  0.00    +0.017 A 
ATOM     18  C   UNL A   1      41.933 -20.061 -39.226  0.00  0.00    +0.040 C 
ENDROOT
BRANCH   1  19
ATOM     19  C   UNL A   1      40.507 -18.495 -37.874  0.00  0.00    +0.133 C 
ATOM     20  S   UNL A   1      40.174 -17.060 -37.064  0.00  0.00    -0.019 S 
BRANCH  19  21
ATOM     21  N   UNL A   1      39.572 -19.499 -38.034  0.00  0.00    -0.323 N 
ATOM     22  H   UNL A   1      39.365 -19.777 -38.955  0.00  0.00    +0.000 HD
BRANCH  21  23
ATOM     23  C   UNL A   1      38.866 -20.181 -36.964  0.00  0.00    +0.029 C 
BRANCH  23  25
ATOM     24  C   UNL A   1      40.373 -22.147 -36.559  0.00  0.00    -0.101 C 
ATOM     25  C   UNL A   1      39.872 -20.964 -36.180  0.00  0.00    -0.074 C 
ENDBRANCH  23  25
ENDBRANCH  21  23
ENDBRANCH  19  21
ENDBRANCH   1  19
BRANCH   7  26
ATOM     26  O   UNL A   1      45.518 -21.371 -33.666  0.00  0.00    -0.388 OA
ATOM     27  H   UNL A   1      44.739 -21.948 -33.658  0.00  0.00    +0.000 HD
ENDBRANCH   7  26
BRANCH  12  28
ATOM     28  O   UNL A   1      47.316 -21.572 -40.483  0.00  0.00    -0.491 OA
ATOM     29  C   UNL A   1      47.404 -22.687 -41.360  0.00  0.00    +0.079 C 
ENDBRANCH  12  28
TORSDOF 6
ENDMDL
MODEL 13
REMARK VINA RESULT:    -6.091     18.436     21.458
REMARK INTER + INTRA:          -8.751
REMARK INTER:                  -8.201
REMARK INTRA:                  -0.550
REMARK UNBOUND:                -0.702
REMARK  Name = cpd306.pdb
REMARK  7 active torsions:
REMARK  status: ('A' for Active; 'I' for Inactive)
REMARK    1  A    between atoms: C_2  and  C_3
REMARK    2  A    between atoms: C_3  and  N_4
REMARK    3  A    between atoms: N_4  and  C_5
REMARK    4  A    between atoms: C_5  and  N_7
REMARK    5  A    between atoms: C_13  and  O_14
REMARK    6  A    between atoms: C_19  and  O_20
REMARK    7  A    between atoms: O_20  and  C_21
REMARK                            x       y       z     vdW  Elec       q    Type
REMARK                         _______ _______ _______ _____ _____    ______ ____
ROOT
ATOM      1  N   UNL A   1      45.488 -20.610 -39.477  0.00  0.00    -0.308 N 
ATOM      2  C   UNL A   1      46.299 -21.175 -38.393  0.00  0.00    +0.015 C 
ATOM      3  C   UNL A   1      46.595 -20.176 -37.264  0.00  0.00    -0.020 C 
ATOM      4  C   UNL A   1      45.447 -19.191 -36.927  0.00  0.00    +0.056 C 
ATOM      5  C   UNL A   1      45.446 -18.003 -37.878  0.00  0.00    -0.071 C 
ATOM      6  C   UNL A   1      45.697 -16.735 -37.513  0.00  0.00    -0.059 C 
ATOM      7  C   UNL A   1      45.906 -16.321 -36.098  0.00  0.00    +0.077 C 
ATOM      8  C   UNL A   1      45.174 -17.269 -35.162  0.00  0.00    +0.015 C 
ATOM      9  C   UNL A   1      45.541 -18.733 -35.433  0.00  0.00    +0.116 C 
ATOM     10  O   UNL A   1      44.629 -19.528 -34.641  0.00  0.00    -0.484 OA
ATOM     11  C   UNL A   1      43.729 -20.053 -35.535  0.00  0.00    +0.167 A 
ATOM     12  C   UNL A   1      42.555 -20.702 -35.186  0.00  0.00    +0.163 A 
ATOM     13  C   UNL A   1      41.808 -21.272 -36.218  0.00  0.00    -0.002 A 
ATOM     14  C   UNL A   1      42.256 -21.233 -37.551  0.00  0.00    +0.027 A 
ATOM     15 BR   UNL A   1      41.129 -22.063 -38.841  0.00  0.00    -0.050 Br
ATOM     16  C   UNL A   1      43.474 -20.617 -37.896  0.00  0.00    -0.008 A 
ATOM     17  C   UNL A   1      44.151 -19.949 -36.864  0.00  0.00    +0.017 A 
ATOM     18  C   UNL A   1      44.016 -20.696 -39.312  0.00  0.00    +0.040 C 
ENDROOT
BRANCH   1  19
ATOM     19  C   UNL A   1      46.053 -20.286 -40.726  0.00  0.00    +0.133 C 
ATOM     20  S   UNL A   1      45.172 -19.740 -42.050  0.00  0.00    -0.019 S 
BRANCH  19  21
ATOM     21  N   UNL A   1      47.424 -20.456 -40.757  0.00  0.00    -0.323 N 
ATOM     22  H   UNL A   1      47.957 -19.916 -40.130  0.00  0.00    +0.000 HD
BRANCH  21  23
ATOM     23  C   UNL A   1      48.148 -21.360 -41.633  0.00  0.00    +0.029 C 
BRANCH  23  25
ATOM     24  C   UNL A   1      47.505 -23.680 -42.341  0.00  0.00    -0.101 C 
ATOM     25  C   UNL A   1      47.629 -22.742 -41.392  0.00  0.00    -0.074 C 
ENDBRANCH  23  25
ENDBRANCH  21  23
ENDBRANCH  19  21
ENDBRANCH   1  19
BRANCH   7  26
ATOM     26  O   UNL A   1      45.381 -15.009 -35.952  0.00  0.00    -0.388 OA
ATOM     27  H   UNL A   1      45.360 -14.572 -36.817  0.00  0.00    +0.000 HD
ENDBRANCH   7  26
BRANCH  12  28
ATOM     28  O   UNL A   1      42.014 -20.873 -33.946  0.00  0.00    -0.491 OA
ATOM     29  C   UNL A   1      40.892 -21.738 -33.832  0.00  0.00    +0.079 C 
ENDBRANCH  12  28
TORSDOF 6
ENDMDL
MODEL 14
REMARK VINA RESULT:    -6.080     18.874     20.496
REMARK INTER + INTRA:          -8.736
REMARK INTER:                  -7.654
REMARK INTRA:                  -1.082
REMARK UNBOUND:                -0.702
REMARK  Name = cpd306.pdb
REMARK  7 active torsions:
REMARK  status: ('A' for Active; 'I' for Inactive)
REMARK    1  A    between atoms: C_2  and  C_3
REMARK    2  A    between atoms: C_3  and  N_4
REMARK    3  A    between atoms: N_4  and  C_5
REMARK    4  A    between atoms: C_5  and  N_7
REMARK    5  A    between atoms: C_13  and  O_14
REMARK    6  A    between atoms: C_19  and  O_20
REMARK    7  A    between atoms: O_20  and  C_21
REMARK                            x       y       z     vdW  Elec       q    Type
REMARK                         _______ _______ _______ _____ _____    ______ ____
ROOT
ATOM      1  N   UNL A   1      41.699 -19.693 -36.424  0.00  0.00    -0.308 N 
ATOM      2  C   UNL A   1      42.082 -18.296 -36.658  0.00  0.00    +0.015 C 
ATOM      3  C   UNL A   1      43.548 -17.996 -36.312  0.00  0.00    -0.020 C 
ATOM      4  C   UNL A   1      44.555 -19.129 -36.633  0.00  0.00    +0.056 C 
ATOM      5  C   UNL A   1      44.583 -20.170 -35.523  0.00  0.00    -0.071 C 
ATOM      6  C   UNL A   1      45.641 -20.411 -34.731  0.00  0.00    -0.059 C 
ATOM      7  C   UNL A   1      46.963 -19.752 -34.916  0.00  0.00    +0.077 C 
ATOM      8  C   UNL A   1      47.155 -19.364 -36.372  0.00  0.00    +0.015 C 
ATOM      9  C   UNL A   1      45.978 -18.536 -36.902  0.00  0.00    +0.116 C 
ATOM     10  O   UNL A   1      46.177 -18.423 -38.329  0.00  0.00    -0.484 OA
ATOM     11  C   UNL A   1      45.257 -19.270 -38.895  0.00  0.00    +0.167 A 
ATOM     12  C   UNL A   1      45.238 -19.637 -40.232  0.00  0.00    +0.163 A 
ATOM     13  C   UNL A   1      44.166 -20.420 -40.664  0.00  0.00    -0.002 A 
ATOM     14  C   UNL A   1      43.124 -20.778 -39.792  0.00  0.00    +0.027 A 
ATOM     15 BR   UNL A   1      41.732 -21.842 -40.535  0.00  0.00    -0.050 Br
ATOM     16  C   UNL A   1      43.120 -20.361 -38.446  0.00  0.00    -0.008 A 
ATOM     17  C   UNL A   1      44.261 -19.676 -38.002  0.00  0.00    +0.017 A 
ATOM     18  C   UNL A   1      41.930 -20.636 -37.546  0.00  0.00    +0.040 C 
ENDROOT
BRANCH   1  19
ATOM     19  C   UNL A   1      40.889 -20.061 -35.331  0.00  0.00    +0.133 C 
ATOM     20  S   UNL A   1      40.276 -21.607 -35.087  0.00  0.00    -0.019 S 
BRANCH  19  21
ATOM     21  N   UNL A   1      40.649 -19.013 -34.463  0.00  0.00    -0.323 N 
ATOM     22  H   UNL A   1      40.304 -18.177 -34.852  0.00  0.00    +0.000 HD
BRANCH  21  23
ATOM     23  C   UNL A   1      40.862 -19.035 -33.027  0.00  0.00    +0.029 C 
BRANCH  23  25
ATOM     24  C   UNL A   1      43.221 -18.252 -32.680  0.00  0.00    -0.101 C 
ATOM     25  C   UNL A   1      42.323 -19.242 -32.784  0.00  0.00    -0.074 C 
ENDBRANCH  23  25
ENDBRANCH  21  23
ENDBRANCH  19  21
ENDBRANCH   1  19
BRANCH   7  26
ATOM     26  O   UNL A   1      47.965 -20.685 -34.536  0.00  0.00    -0.388 OA
ATOM     27  H   UNL A   1      47.881 -21.486 -35.076  0.00  0.00    +0.000 HD
ENDBRANCH   7  26
BRANCH  12  28
ATOM     28  O   UNL A   1      46.136 -19.330 -41.211  0.00  0.00    -0.491 OA
ATOM     29  C   UNL A   1      47.207 -20.239 -41.428  0.00  0.00    +0.079 C 
ENDBRANCH  12  28
TORSDOF 6
ENDMDL
MODEL 15
REMARK VINA RESULT:    -6.028     19.091     21.370
REMARK INTER + INTRA:          -8.668
REMARK INTER:                  -8.085
REMARK INTRA:                  -0.583
REMARK UNBOUND:                -0.702
REMARK  Name = cpd306.pdb
REMARK  7 active torsions:
REMARK  status: ('A' for Active; 'I' for Inactive)
REMARK    1  A    between atoms: C_2  and  C_3
REMARK    2  A    between atoms: C_3  and  N_4
REMARK    3  A    between atoms: N_4  and  C_5
REMARK    4  A    between atoms: C_5  and  N_7
REMARK    5  A    between atoms: C_13  and  O_14
REMARK    6  A    between atoms: C_19  and  O_20
REMARK    7  A    between atoms: O_20  and  C_21
REMARK                            x       y       z     vdW  Elec       q    Type
REMARK                         _______ _______ _______ _____ _____    ______ ____
ROOT
ATOM      1  N   UNL A   1      45.499 -19.250 -39.798  0.00  0.00    -0.308 N 
ATOM      2  C   UNL A   1      44.560 -18.124 -39.732  0.00  0.00    +0.015 C 
ATOM      3  C   UNL A   1      43.111 -18.551 -39.454  0.00  0.00    -0.020 C 
ATOM      4  C   UNL A   1      42.941 -19.745 -38.481  0.00  0.00    +0.056 C 
ATOM      5  C   UNL A   1      43.114 -21.072 -39.206  0.00  0.00    -0.071 C 
ATOM      6  C   UNL A   1      42.139 -21.980 -39.377  0.00  0.00    -0.059 C 
ATOM      7  C   UNL A   1      40.783 -21.840 -38.778  0.00  0.00    +0.077 C 
ATOM      8  C   UNL A   1      40.854 -21.004 -37.511  0.00  0.00    +0.015 C 
ATOM      9  C   UNL A   1      41.559 -19.664 -37.751  0.00  0.00    +0.116 C 
ATOM     10  O   UNL A   1      41.753 -19.073 -36.446  0.00  0.00    -0.484 OA
ATOM     11  C   UNL A   1      43.090 -19.219 -36.172  0.00  0.00    +0.167 A 
ATOM     12  C   UNL A   1      43.674 -18.987 -34.936  0.00  0.00    +0.163 A 
ATOM     13  C   UNL A   1      45.065 -19.078 -34.860  0.00  0.00    -0.002 A 
ATOM     14  C   UNL A   1      45.844 -19.343 -36.000  0.00  0.00    +0.027 A 
ATOM     15 BR   UNL A   1      47.727 -19.427 -35.732  0.00  0.00    -0.050 Br
ATOM     16  C   UNL A   1      45.251 -19.528 -37.264  0.00  0.00    -0.008 A 
ATOM     17  C   UNL A   1      43.849 -19.550 -37.299  0.00  0.00    +0.017 A 
ATOM     18  C   UNL A   1      46.102 -19.679 -38.512  0.00  0.00    +0.040 C 
ENDROOT
BRANCH   1  19
ATOM     19  C   UNL A   1      46.029 -19.696 -41.024  0.00  0.00    +0.133 C 
ATOM     20  S   UNL A   1      45.124 -19.900 -42.426  0.00  0.00    -0.019 S 
BRANCH  19  21
ATOM     21  N   UNL A   1      47.386 -19.947 -40.965  0.00  0.00    -0.323 N 
ATOM     22  H   UNL A   1      47.892 -19.511 -40.241  0.00  0.00    +0.000 HD
BRANCH  21  23
ATOM     23  C   UNL A   1      48.133 -20.795 -41.875  0.00  0.00    +0.029 C 
BRANCH  23  25
ATOM     24  C   UNL A   1      47.694 -23.244 -42.203  0.00  0.00    -0.101 C 
ATOM     25  C   UNL A   1      47.989 -22.208 -41.406  0.00  0.00    -0.074 C 
ENDBRANCH  23  25
ENDBRANCH  21  23
ENDBRANCH  19  21
ENDBRANCH   1  19
BRANCH   7  26
ATOM     26  O   UNL A   1      40.316 -23.144 -38.462  0.00  0.00    -0.388 OA
ATOM     27  H   UNL A   1      40.261 -23.672 -39.273  0.00  0.00    +0.000 HD
ENDBRANCH   7  26
BRANCH  12  28
ATOM     28  O   UNL A   1      43.070 -18.670 -33.756  0.00  0.00    -0.491 OA
ATOM     29  C   UNL A   1      43.905 -18.290 -32.671  0.00  0.00    +0.079 C 
ENDBRANCH  12  28
TORSDOF 6
ENDMDL
MODEL 16
REMARK VINA RESULT:    -6.006      2.566      3.544
REMARK INTER + INTRA:          -8.639
REMARK INTER:                  -8.122
REMARK INTRA:                  -0.517
REMARK UNBOUND:                -0.702
REMARK  Name = cpd306.pdb
REMARK  7 active torsions:
REMARK  status: ('A' for Active; 'I' for Inactive)
REMARK    1  A    between atoms: C_2  and  C_3
REMARK    2  A    between atoms: C_3  and  N_4
REMARK    3  A    between atoms: N_4  and  C_5
REMARK    4  A    between atoms: C_5  and  N_7
REMARK    5  A    between atoms: C_13  and  O_14
REMARK    6  A    between atoms: C_19  and  O_20
REMARK    7  A    between atoms: O_20  and  C_21
REMARK                            x       y       z     vdW  Elec       q    Type
REMARK                         _______ _______ _______ _____ _____    ______ ____
ROOT
ATOM      1  N   UNL A   1      32.108 -36.871 -28.675  0.00  0.00    -0.308 N 
ATOM      2  C   UNL A   1      31.947 -36.928 -30.132  0.00  0.00    +0.015 C 
ATOM      3  C   UNL A   1      31.886 -35.545 -30.798  0.00  0.00    -0.020 C 
ATOM      4  C   UNL A   1      32.802 -34.463 -30.172  0.00  0.00    +0.056 C 
ATOM      5  C   UNL A   1      32.147 -33.825 -28.956  0.00  0.00    -0.071 C 
ATOM      6  C   UNL A   1      31.763 -32.540 -28.884  0.00  0.00    -0.059 C 
ATOM      7  C   UNL A   1      32.032 -31.548 -29.962  0.00  0.00    +0.077 C 
ATOM      8  C   UNL A   1      33.275 -31.946 -30.740  0.00  0.00    +0.015 C 
ATOM      9  C   UNL A   1      33.193 -33.392 -31.244  0.00  0.00    +0.116 C 
ATOM     10  O   UNL A   1      34.504 -33.709 -31.767  0.00  0.00    -0.484 OA
ATOM     11  C   UNL A   1      35.080 -34.536 -30.836  0.00  0.00    +0.167 A 
ATOM     12  C   UNL A   1      36.415 -34.909 -30.827  0.00  0.00    +0.163 A 
ATOM     13  C   UNL A   1      36.811 -35.845 -29.871  0.00  0.00    -0.002 A 
ATOM     14  C   UNL A   1      35.884 -36.425 -28.988  0.00  0.00    +0.027 A 
ATOM     15 BR   UNL A   1      36.579 -37.691 -27.748  0.00  0.00    -0.050 Br
ATOM     16  C   UNL A   1      34.518 -36.082 -29.032  0.00  0.00    -0.008 A 
ATOM     17  C   UNL A   1      34.161 -35.055 -29.919  0.00  0.00    +0.017 A 
ATOM     18  C   UNL A   1      33.501 -36.808 -28.169  0.00  0.00    +0.040 C 
ENDROOT
BRANCH   1  19
ATOM     19  C   UNL A   1      31.040 -37.163 -27.804  0.00  0.00    +0.133 C 
ATOM     20  S   UNL A   1      29.929 -38.400 -28.052  0.00  0.00    -0.019 S 
BRANCH  19  21
ATOM     21  N   UNL A   1      30.997 -36.326 -26.706  0.00  0.00    -0.323 N 
ATOM     22  H   UNL A   1      30.767 -35.383 -26.869  0.00  0.00    +0.000 HD
BRANCH  21  23
ATOM     23  C   UNL A   1      31.262 -36.713 -25.332  0.00  0.00    +0.029 C 
BRANCH  23  25
ATOM     24  C   UNL A   1      32.736 -35.529 -23.682  0.00  0.00    -0.101 C 
ATOM     25  C   UNL A   1      32.527 -36.040 -24.903  0.00  0.00    -0.074 C 
ENDBRANCH  23  25
ENDBRANCH  21  23
ENDBRANCH  19  21
ENDBRANCH   1  19
BRANCH   7  26
ATOM     26  O   UNL A   1      32.242 -30.287 -29.343  0.00  0.00    -0.388 OA
ATOM     27  H   UNL A   1      33.144 -30.247 -28.988  0.00  0.00    +0.000 HD
ENDBRANCH   7  26
BRANCH  12  28
ATOM     28  O   UNL A   1      37.422 -34.484 -31.643  0.00  0.00    -0.491 OA
ATOM     29  C   UNL A   1      38.527 -35.357 -31.832  0.00  0.00    +0.079 C 
ENDBRANCH  12  28
TORSDOF 6
ENDMDL
MODEL 17
REMARK VINA RESULT:    -6.000     18.975     21.708
REMARK INTER + INTRA:          -8.632
REMARK INTER:                  -8.073
REMARK INTRA:                  -0.559
REMARK UNBOUND:                -0.702
REMARK  Name = cpd306.pdb
REMARK  7 active torsions:
REMARK  status: ('A' for Active; 'I' for Inactive)
REMARK    1  A    between atoms: C_2  and  C_3
REMARK    2  A    between atoms: C_3  and  N_4
REMARK    3  A    between atoms: N_4  and  C_5
REMARK    4  A    between atoms: C_5  and  N_7
REMARK    5  A    between atoms: C_13  and  O_14
REMARK    6  A    between atoms: C_19  and  O_20
REMARK    7  A    between atoms: O_20  and  C_21
REMARK                            x       y       z     vdW  Elec       q    Type
REMARK                         _______ _______ _______ _____ _____    ______ ____
ROOT
ATOM      1  N   UNL A   1      43.104 -20.290 -38.024  0.00  0.00    -0.308 N 
ATOM      2  C   UNL A   1      44.328 -19.937 -37.296  0.00  0.00    +0.015 C 
ATOM      3  C   UNL A   1      45.616 -20.322 -38.040  0.00  0.00    -0.020 C 
ATOM      4  C   UNL A   1      45.569 -20.161 -39.581  0.00  0.00    +0.056 C 
ATOM      5  C   UNL A   1      44.917 -21.368 -40.239  0.00  0.00    -0.071 C 
ATOM      6  C   UNL A   1      45.551 -22.229 -41.052  0.00  0.00    -0.059 C 
ATOM      7  C   UNL A   1      46.961 -22.042 -41.493  0.00  0.00    +0.077 C 
ATOM      8  C   UNL A   1      47.318 -20.565 -41.494  0.00  0.00    +0.015 C 
ATOM      9  C   UNL A   1      47.005 -19.903 -40.147  0.00  0.00    +0.116 C 
ATOM     10  O   UNL A   1      47.181 -18.482 -40.349  0.00  0.00    -0.484 OA
ATOM     11  C   UNL A   1      45.913 -17.959 -40.395  0.00  0.00    +0.167 A 
ATOM     12  C   UNL A   1      45.605 -16.665 -40.787  0.00  0.00    +0.163 A 
ATOM     13  C   UNL A   1      44.274 -16.262 -40.671  0.00  0.00    -0.002 A 
ATOM     14  C   UNL A   1      43.296 -17.115 -40.130  0.00  0.00    +0.027 A 
ATOM     15 BR   UNL A   1      41.529 -16.415 -40.031  0.00  0.00    -0.050 Br
ATOM     16  C   UNL A   1      43.622 -18.411 -39.686  0.00  0.00    -0.008 A 
ATOM     17  C   UNL A   1      44.937 -18.840 -39.919  0.00  0.00    +0.017 A 
ATOM     18  C   UNL A   1      42.593 -19.278 -38.981  0.00  0.00    +0.040 C 
ENDROOT
BRANCH   1  19
ATOM     19  C   UNL A   1      42.297 -21.373 -37.625  0.00  0.00    +0.133 C 
ATOM     20  S   UNL A   1      41.409 -22.330 -38.684  0.00  0.00    -0.019 S 
BRANCH  19  21
ATOM     21  N   UNL A   1      42.312 -21.582 -36.259  0.00  0.00    -0.323 N 
ATOM     22  H   UNL A   1      43.118 -21.997 -35.878  0.00  0.00    +0.000 HD
BRANCH  21  23
ATOM     23  C   UNL A   1      41.243 -21.242 -35.337  0.00  0.00    +0.029 C 
BRANCH  23  25
ATOM     24  C   UNL A   1      39.375 -22.915 -35.449  0.00  0.00    -0.101 C 
ATOM     25  C   UNL A   1      40.552 -22.512 -34.951  0.00  0.00    -0.074 C 
ENDBRANCH  23  25
ENDBRANCH  21  23
ENDBRANCH  19  21
ENDBRANCH   1  19
BRANCH   7  26
ATOM     26  O   UNL A   1      47.069 -22.559 -42.812  0.00  0.00    -0.388 OA
ATOM     27  H   UNL A   1      47.800 -22.117 -43.273  0.00  0.00    +0.000 HD
ENDBRANCH   7  26
BRANCH  12  28
ATOM     28  O   UNL A   1      46.439 -15.704 -41.278  0.00  0.00    -0.491 OA
ATOM     29  C   UNL A   1      47.087 -14.856 -40.340  0.00  0.00    +0.079 C 
ENDBRANCH  12  28
TORSDOF 6
ENDMDL
MODEL 18
REMARK VINA RESULT:    -5.870     19.622     22.655
REMARK INTER + INTRA:          -8.459
REMARK INTER:                  -7.860
REMARK INTRA:                  -0.599
REMARK UNBOUND:                -0.702
REMARK  Name = cpd306.pdb
REMARK  7 active torsions:
REMARK  status: ('A' for Active; 'I' for Inactive)
REMARK    1  A    between atoms: C_2  and  C_3
REMARK    2  A    between atoms: C_3  and  N_4
REMARK    3  A    between atoms: N_4  and  C_5
REMARK    4  A    between atoms: C_5  and  N_7
REMARK    5  A    between atoms: C_13  and  O_14
REMARK    6  A    between atoms: C_19  and  O_20
REMARK    7  A    between atoms: O_20  and  C_21
REMARK                            x       y       z     vdW  Elec       q    Type
REMARK                         _______ _______ _______ _____ _____    ______ ____
ROOT
ATOM      1  N   UNL A   1      45.165 -17.296 -39.583  0.00  0.00    -0.308 N 
ATOM      2  C   UNL A   1      44.220 -17.227 -40.704  0.00  0.00    +0.015 C 
ATOM      3  C   UNL A   1      44.429 -18.332 -41.750  0.00  0.00    -0.020 C 
ATOM      4  C   UNL A   1      44.847 -19.714 -41.187  0.00  0.00    +0.056 C 
ATOM      5  C   UNL A   1      46.347 -19.773 -40.935  0.00  0.00    -0.071 C 
ATOM      6  C   UNL A   1      47.201 -20.568 -41.600  0.00  0.00    -0.059 C 
ATOM      7  C   UNL A   1      46.760 -21.577 -42.603  0.00  0.00    +0.077 C 
ATOM      8  C   UNL A   1      45.347 -22.040 -42.293  0.00  0.00    +0.015 C 
ATOM      9  C   UNL A   1      44.380 -20.859 -42.146  0.00  0.00    +0.116 C 
ATOM     10  O   UNL A   1      43.143 -21.414 -41.644  0.00  0.00    -0.484 OA
ATOM     11  C   UNL A   1      43.086 -21.049 -40.322  0.00  0.00    +0.167 A 
ATOM     12  C   UNL A   1      42.177 -21.547 -39.402  0.00  0.00    +0.163 A 
ATOM     13  C   UNL A   1      42.188 -20.985 -38.124  0.00  0.00    -0.002 A 
ATOM     14  C   UNL A   1      43.050 -19.923 -37.800  0.00  0.00    +0.027 A 
ATOM     15 BR   UNL A   1      42.939 -19.261 -36.019  0.00  0.00    -0.050 Br
ATOM     16  C   UNL A   1      43.937 -19.384 -38.752  0.00  0.00    -0.008 A 
ATOM     17  C   UNL A   1      43.995 -20.038 -39.993  0.00  0.00    +0.017 A 
ATOM     18  C   UNL A   1      44.768 -18.152 -38.439  0.00  0.00    +0.040 C 
ENDROOT
BRANCH   1  19
ATOM     19  C   UNL A   1      46.228 -16.381 -39.460  0.00  0.00    +0.133 C 
ATOM     20  S   UNL A   1      47.330 -16.041 -40.684  0.00  0.00    -0.019 S 
BRANCH  19  21
ATOM     21  N   UNL A   1      46.276 -15.774 -38.219  0.00  0.00    -0.323 N 
ATOM     22  H   UNL A   1      45.469 -15.292 -37.925  0.00  0.00    +0.000 HD
BRANCH  21  23
ATOM     23  C   UNL A   1      47.409 -15.784 -37.313  0.00  0.00    +0.029 C 
BRANCH  23  25
ATOM     24  C   UNL A   1      47.780 -17.702 -35.737  0.00  0.00    -0.101 C 
ATOM     25  C   UNL A   1      47.055 -16.652 -36.147  0.00  0.00    -0.074 C 
ENDBRANCH  23  25
ENDBRANCH  21  23
ENDBRANCH  19  21
ENDBRANCH   1  19
BRANCH   7  26
ATOM     26  O   UNL A   1      47.651 -22.681 -42.521  0.00  0.00    -0.388 OA
ATOM     27  H   UNL A   1      48.459 -22.410 -42.057  0.00  0.00    +0.000 HD
ENDBRANCH   7  26
BRANCH  12  28
ATOM     28  O   UNL A   1      41.247 -22.529 -39.571  0.00  0.00    -0.491 OA
ATOM     29  C   UNL A   1      40.121 -22.524 -38.705  0.00  0.00    +0.079 C 
ENDBRANCH  12  28
TORSDOF 6
ENDMDL
MODEL 19
REMARK VINA RESULT:    -5.852      3.544      5.527
REMARK INTER + INTRA:          -8.436
REMARK INTER:                  -7.854
REMARK INTRA:                  -0.582
REMARK UNBOUND:                -0.702
REMARK  Name = cpd306.pdb
REMARK  7 active torsions:
REMARK  status: ('A' for Active; 'I' for Inactive)
REMARK    1  A    between atoms: C_2  and  C_3
REMARK    2  A    between atoms: C_3  and  N_4
REMARK    3  A    between atoms: N_4  and  C_5
REMARK    4  A    between atoms: C_5  and  N_7
REMARK    5  A    between atoms: C_13  and  O_14
REMARK    6  A    between atoms: C_19  and  O_20
REMARK    7  A    between atoms: O_20  and  C_21
REMARK                            x       y       z     vdW  Elec       q    Type
REMARK                         _______ _______ _______ _____ _____    ______ ____
ROOT
ATOM      1  N   UNL A   1      34.926 -38.073 -29.597  0.00  0.00    -0.308 N 
ATOM      2  C   UNL A   1      33.684 -37.615 -28.961  0.00  0.00    +0.015 C 
ATOM      3  C   UNL A   1      33.361 -36.140 -29.241  0.00  0.00    -0.020 C 
ATOM      4  C   UNL A   1      33.725 -35.634 -30.659  0.00  0.00    +0.056 C 
ATOM      5  C   UNL A   1      35.195 -35.250 -30.745  0.00  0.00    -0.071 C 
ATOM      6  C   UNL A   1      35.647 -34.002 -30.948  0.00  0.00    -0.059 C 
ATOM      7  C   UNL A   1      34.748 -32.846 -31.220  0.00  0.00    +0.077 C 
ATOM      8  C   UNL A   1      33.464 -33.325 -31.877  0.00  0.00    +0.015 C 
ATOM      9  C   UNL A   1      32.795 -34.445 -31.071  0.00  0.00    +0.116 C 
ATOM     10  O   UNL A   1      31.725 -34.952 -31.901  0.00  0.00    -0.484 OA
ATOM     11  C   UNL A   1      32.168 -36.163 -32.371  0.00  0.00    +0.167 A 
ATOM     12  C   UNL A   1      31.551 -36.896 -33.373  0.00  0.00    +0.163 A 
ATOM     13  C   UNL A   1      32.072 -38.160 -33.653  0.00  0.00    -0.002 A 
ATOM     14  C   UNL A   1      33.145 -38.688 -32.914  0.00  0.00    +0.027 A 
ATOM     15 BR   UNL A   1      33.736 -40.428 -33.412  0.00  0.00    -0.050 Br
ATOM     16  C   UNL A   1      33.738 -37.962 -31.863  0.00  0.00    -0.008 A 
ATOM     17  C   UNL A   1      33.278 -36.649 -31.674  0.00  0.00    +0.017 A 
ATOM     18  C   UNL A   1      34.804 -38.589 -30.982  0.00  0.00    +0.040 C 
ENDROOT
BRANCH   1  19
ATOM     19  C   UNL A   1      36.097 -38.297 -28.847  0.00  0.00    +0.133 C 
ATOM     20  S   UNL A   1      37.379 -37.214 -28.750  0.00  0.00    -0.019 S 
BRANCH  19  21
ATOM     21  N   UNL A   1      36.087 -39.508 -28.182  0.00  0.00    -0.323 N 
ATOM     22  H   UNL A   1      35.739 -39.512 -27.262  0.00  0.00    +0.000 HD
BRANCH  21  23
ATOM     23  C   UNL A   1      36.546 -40.776 -28.721  0.00  0.00    +0.029 C 
BRANCH  23  25
ATOM     24  C   UNL A   1      34.454 -41.938 -29.475  0.00  0.00    -0.101 C 
ATOM     25  C   UNL A   1      35.433 -41.764 -28.577  0.00  0.00    -0.074 C 
ENDBRANCH  23  25
ENDBRANCH  21  23
ENDBRANCH  19  21
ENDBRANCH   1  19
BRANCH   7  26
ATOM     26  O   UNL A   1      35.434 -31.968 -32.101  0.00  0.00    -0.388 OA
ATOM     27  H   UNL A   1      36.189 -32.431 -32.497  0.00  0.00    +0.000 HD
ENDBRANCH   7  26
BRANCH  12  28
ATOM     28  O   UNL A   1      30.478 -36.552 -34.140  0.00  0.00    -0.491 OA
ATOM     29  C   UNL A   1      30.117 -37.431 -35.197  0.00  0.00    +0.079 C 
ENDBRANCH  12  28
TORSDOF 6
ENDMDL
MODEL 20
REMARK VINA RESULT:    -5.520     20.132     23.245
REMARK INTER + INTRA:          -7.997
REMARK INTER:                  -7.385
REMARK INTRA:                  -0.612
REMARK UNBOUND:                -0.702
REMARK  Name = cpd306.pdb
REMARK  7 active torsions:
REMARK  status: ('A' for Active; 'I' for Inactive)
REMARK    1  A    between atoms: C_2  and  C_3
REMARK    2  A    between atoms: C_3  and  N_4
REMARK    3  A    between atoms: N_4  and  C_5
REMARK    4  A    between atoms: C_5  and  N_7
REMARK    5  A    between atoms: C_13  and  O_14
REMARK    6  A    between atoms: C_19  and  O_20
REMARK    7  A    between atoms: O_20  and  C_21
REMARK                            x       y       z     vdW  Elec       q    Type
REMARK                         _______ _______ _______ _____ _____    ______ ____
ROOT
ATOM      1  N   UNL A   1      45.177 -17.256 -39.682  0.00  0.00    -0.308 N 
ATOM      2  C   UNL A   1      44.267 -17.213 -40.833  0.00  0.00    +0.015 C 
ATOM      3  C   UNL A   1      44.535 -18.317 -41.867  0.00  0.00    -0.020 C 
ATOM      4  C   UNL A   1      44.967 -19.686 -41.284  0.00  0.00    +0.056 C 
ATOM      5  C   UNL A   1      46.459 -19.709 -40.984  0.00  0.00    -0.071 C 
ATOM      6  C   UNL A   1      47.352 -20.487 -41.617  0.00  0.00    -0.059 C 
ATOM      7  C   UNL A   1      46.967 -21.510 -42.629  0.00  0.00    +0.077 C 
ATOM      8  C   UNL A   1      45.555 -22.004 -42.363  0.00  0.00    +0.015 C 
ATOM      9  C   UNL A   1      44.557 -20.846 -42.252  0.00  0.00    +0.116 C 
ATOM     10  O   UNL A   1      43.318 -21.427 -41.788  0.00  0.00    -0.484 OA
ATOM     11  C   UNL A   1      43.210 -21.058 -40.470  0.00  0.00    +0.167 A 
ATOM     12  C   UNL A   1      42.284 -21.574 -39.578  0.00  0.00    +0.163 A 
ATOM     13  C   UNL A   1      42.240 -21.007 -38.303  0.00  0.00    -0.002 A 
ATOM     14  C   UNL A   1      43.066 -19.924 -37.956  0.00  0.00    +0.027 A 
ATOM     15 BR   UNL A   1      42.883 -19.258 -36.182  0.00  0.00    -0.050 Br
ATOM     16  C   UNL A   1      43.971 -19.369 -38.882  0.00  0.00    -0.008 A 
ATOM     17  C   UNL A   1      44.084 -20.025 -40.117  0.00  0.00    +0.017 A 
ATOM     18  C   UNL A   1      44.763 -18.117 -38.547  0.00  0.00    +0.040 C 
ENDROOT
BRANCH   1  19
ATOM     19  C   UNL A   1      46.214 -16.315 -39.529  0.00  0.00    +0.133 C 
ATOM     20  S   UNL A   1      46.989 -15.990 -38.073  0.00  0.00    -0.019 S 
BRANCH  19  21
ATOM     21  N   UNL A   1      46.544 -15.681 -40.711  0.00  0.00    -0.323 N 
ATOM     22  H   UNL A   1      46.700 -16.251 -41.498  0.00  0.00    +0.000 HD
BRANCH  21  23
ATOM     23  C   UNL A   1      46.682 -14.247 -40.896  0.00  0.00    +0.029 C 
BRANCH  23  25
ATOM     24  C   UNL A   1      44.382 -13.599 -41.665  0.00  0.00    -0.101 C 
ATOM     25  C   UNL A   1      45.679 -13.820 -41.920  0.00  0.00    -0.074 C 
ENDBRANCH  23  25
ENDBRANCH  21  23
ENDBRANCH  19  21
ENDBRANCH   1  19
BRANCH   7  26
ATOM     26  O   UNL A   1      47.880 -22.592 -42.514  0.00  0.00    -0.388 OA
ATOM     27  H   UNL A   1      48.752 -22.315 -42.835  0.00  0.00    +0.000 HD
ENDBRANCH   7  26
BRANCH  12  28
ATOM     28  O   UNL A   1      41.382 -22.578 -39.773  0.00  0.00    -0.491 OA
ATOM     29  C   UNL A   1      40.337 -22.717 -38.820  0.00  0.00    +0.079 C 
ENDBRANCH  12  28
TORSDOF 6
ENDMDL
