@<TRIPOS>MOLECULE
*****
 27 30 0 0 0
SMALL
GASTEIGER

@<TRIPOS>ATOM
      1 C           1.8147    4.5775    0.0000 C.2     1  UNL1       -0.0031
      2 C           1.9704    3.6054    0.0000 C.2     1  UNL1       -0.0029
      3 C           1.2064    2.9845    0.0000 C.3     1  UNL1        0.1402
      4 N           1.3620    2.0124    0.0000 N.am    1  UNL1       -0.2131
      5 C           0.5980    1.3916    0.0000 C.2     1  UNL1        0.1546
      6 S          -0.3217    1.7428    0.0000 S.2     1  UNL1       -0.0169
      7 N           0.7537    0.4195    0.0000 N.am    1  UNL1       -0.2858
      8 C           1.6006    0.2563    0.0000 C.3     1  UNL1        0.0936
      9 C           2.1446   -0.4131    0.0000 C.3     1  UNL1        0.0332
     10 C           2.1310   -1.2755    0.0000 C.3     1  UNL1        0.0783
     11 C           2.9442   -0.8064    0.0000 C.2     1  UNL1       -0.0211
     12 C           3.7567   -1.2758    0.0000 C.2     1  UNL1        0.0021
     13 C           3.7565   -2.2148    0.0000 C.3     1  UNL1        0.1773
     14 O           4.5887   -2.6954    0.0000 O.3     1  UNL1       -0.2182
     15 C           2.9438   -2.6838    0.0000 C.3     1  UNL1        0.0816
     16 C           2.1308   -2.2144    0.0000 C.3     1  UNL1        0.1762
     17 O           1.3181   -2.6835    0.0000 O.3     1  UNL1       -0.4757
     18 C           0.5051   -2.2141    0.0000 C.ar    1  UNL1        0.1682
     19 C          -0.3081   -2.6832    0.0000 C.ar    1  UNL1        0.1725
     20 O          -0.3084   -3.6215    0.0000 O.3     1  UNL1       -0.4684
     21 C           0.5041   -4.0910    0.0000 C.3     1  UNL1        0.2526
     22 C          -1.1206   -2.2138    0.0000 C.ar    1  UNL1        0.0465
     23 C          -1.1204   -1.2748    0.0000 C.ar    1  UNL1        0.0351
     24 BR         -1.9513   -0.7950    0.0000 Br      1  UNL1       -0.0492
     25 C          -0.3077   -0.8058    0.0000 C.ar    1  UNL1        0.0034
     26 C           0.5053   -1.2752    0.0000 C.ar    1  UNL1        0.0195
     27 C           0.0000   -0.0000    0.0000 C.3     1  UNL1        0.1195
@<TRIPOS>BOND
     1     1     2    2
     2     2     3    1
     3     3     4    1
     4     4     5    1
     5     5     6    2
     6     5     7    1
     7     7     8    1
     8     8     9    1
     9     9    10    1
    10    10    11    1
    11    11    12    2
    12    12    13    1
    13    13    14    1
    14    13    15    1
    15    15    16    1
    16    10    16    1
    17    16    17    1
    18    17    18    1
    19    18    19   ar
    20    19    20    1
    21    20    21    1
    22    19    22   ar
    23    22    23   ar
    24    23    24    1
    25    23    25   ar
    26    25    26   ar
    27    18    26   ar
    28    10    26    1
    29    25    27    1
    30     7    27    1
