@<TRIPOS>MOLECULE
*****
 27 31 0 0 0
SMALL
GASTEIGER

@<TRIPOS>ATOM
      1 C          -4.1827    0.2221    0.0000 C.ar    1  UNL1       -0.0000
      2 C          -4.3849    1.1733    0.0000 C.ar    1  UNL1       -0.0001
      3 C          -3.6623    1.8241    0.0000 C.ar    1  UNL1        0.0025
      4 C          -2.7374    1.5236    0.0000 C.ar    1  UNL1        0.0555
      5 C          -2.0148    2.1743    0.0000 C.3     1  UNL1        0.3502
      6 N          -1.0899    1.8739    0.0000 N.ar    1  UNL1       -0.1555
      7 C          -0.3673    2.5246    0.0000 C.ar    1  UNL1        0.2901
      8 C           0.5576    2.2242    0.0000 C.ar    1  UNL1        0.0735
      9 C           0.7598    1.2730    0.0000 C.ar    1  UNL1        0.0126
     10 C           1.6847    0.9726    0.0000 C.3     1  UNL1        0.1328
     11 N           1.6848    0.0001    0.0000 N.ar    1  UNL1       -0.3268
     12 C           0.8427   -0.4862    0.0000 C.ar    1  UNL1        0.0334
     13 C           0.8427   -1.4593    0.0000 C.ar    1  UNL1       -0.0091
     14 C           2.5275   -1.4592    0.0000 C.ar    1  UNL1        0.0129
     15 C           3.3702   -1.9454    0.0000 C.ar    1  UNL1        0.0012
     16 C           4.2123   -1.4591    0.0000 C.ar    1  UNL1        0.0001
     17 C           4.2122   -0.4860    0.0000 C.ar    1  UNL1        0.0015
     18 C           3.3701    0.0002    0.0000 C.ar    1  UNL1        0.0172
     19 C           2.5275   -0.4861    0.0000 C.ar    1  UNL1        0.0596
     20 C           0.0001   -1.9456    0.0000 C.3     1  UNL1        0.0275
     21 C          -0.8421   -1.4594    0.0000 C.3     1  UNL1        0.0051
     22 C          -0.8421   -0.4863    0.0000 C.3     1  UNL1        0.0066
     23 C           0.0000   -0.0000    0.0000 C.3     1  UNL1        0.0435
     24 C           0.0372    0.6223    0.0000 C.ar    1  UNL1        0.0735
     25 C          -0.8877    0.9227    0.0000 C.ar    1  UNL1        0.2901
     26 C          -2.5352    0.5724    0.0000 C.ar    1  UNL1        0.0025
     27 C          -3.4862    0.9958    0.0000 C.ar    1  UNL1       -0.0001
@<TRIPOS>UNITY_ATOM_ATTR
6 1
charge 1
@<TRIPOS>BOND
     1     1     2   ar
     2     2     3   ar
     3     3     4   ar
     4     4     5    1
     5     5     6    1
     6     6     7   ar
     7     7     8   ar
     8     8     9   ar
     9     9    10    1
    10    10    11    1
    11    11    12   ar
    12    12    13   ar
    13    13    14   ar
    14    14    15   ar
    15    15    16   ar
    16    16    17   ar
    17    17    18   ar
    18    18    19   ar
    19    14    19   ar
    20    11    19   ar
    21    13    20    1
    22    20    21    1
    23    21    22    1
    24    22    23    1
    25    12    23    1
    26     9    24   ar
    27    24    25   ar
    28     6    25   ar
    29     4    26   ar
    30    26    27   ar
    31     1    27   ar
