REMARK  Name = cpd354.pdb
REMARK  4 active torsions:
REMARK  status: ('A' for Active; 'I' for Inactive)
REMARK    1  A    between atoms: C_4  and  C_5
REMARK    2  A    between atoms: C_5  and  N_6
REMARK    3  A    between atoms: C_9  and  C_10
REMARK    4  A    between atoms: C_10  and  N_11
REMARK                            x       y       z     vdW  Elec       q    Type
REMARK                         _______ _______ _______ _____ _____    ______ ____
ROOT
ATOM      1  C   UNL A   1       2.105   1.271   1.103  0.00  0.00    +0.049 C 
ENDROOT
BRANCH   1   2
ATOM      2  N   UNL A   1       2.197  -0.122   0.674  0.00  0.00    -0.339 N 
ATOM      3  C   UNL A   1       1.438  -1.156   1.165  0.00  0.00    +0.023 A 
ATOM      4  C   UNL A   1       1.799  -2.310   0.497  0.00  0.00    -0.019 A 
ATOM      5  C   UNL A   1       2.816  -1.970  -0.434  0.00  0.00    +0.003 A 
ATOM      6  C   UNL A   1       3.558  -2.709  -1.378  0.00  0.00    -0.052 A 
ATOM      7  C   UNL A   1       4.521  -2.065  -2.159  0.00  0.00    -0.061 A 
ATOM      8  C   UNL A   1       4.751  -0.701  -2.013  0.00  0.00    -0.060 A 
ATOM      9  C   UNL A   1       4.026   0.056  -1.088  0.00  0.00    -0.038 A 
ATOM     10  C   UNL A   1       3.059  -0.597  -0.303  0.00  0.00    +0.050 A 
ATOM     11  C   UNL A   1       1.166  -3.635   0.767  0.00  0.00    -0.025 C 
ATOM     12  C   UNL A   1       0.400  -3.626   2.102  0.00  0.00    -0.049 C 
ATOM     13  C   UNL A   1      -0.440  -2.350   2.274  0.00  0.00    -0.047 C 
ATOM     14  C   UNL A   1       0.428  -1.078   2.263  0.00  0.00    -0.012 C 
ENDBRANCH   1   2
BRANCH   1  18
ATOM     15  N   UNL A   1      -1.369   3.288  -0.434  0.00  0.00    -0.349 N 
ATOM     16  C   UNL A   1      -0.905   3.578   0.802  0.00  0.00    +0.005 A 
ATOM     17  C   UNL A   1       0.222   2.936   1.307  0.00  0.00    -0.041 A 
ATOM     18  C   UNL A   1       0.886   1.977   0.537  0.00  0.00    -0.025 A 
ATOM     19  C   UNL A   1       0.408   1.732  -0.754  0.00  0.00    -0.041 A 
ATOM     20  C   UNL A   1      -0.727   2.389  -1.216  0.00  0.00    +0.005 A 
BRANCH  15  21
ATOM     21  C   UNL A   1      -2.592   3.957  -0.945  0.00  0.00    +0.048 C 
BRANCH  21  25
ATOM     22  C   UNL A   1      -5.899   1.194  -1.137  0.00  0.00    -0.062 A 
ATOM     23  C   UNL A   1      -5.441   1.818  -2.294  0.00  0.00    -0.061 A 
ATOM     24  C   UNL A   1      -4.373   2.715  -2.232  0.00  0.00    -0.057 A 
ATOM     25  C   UNL A   1      -3.749   2.994  -1.006  0.00  0.00    -0.028 A 
ATOM     26  C   UNL A   1      -4.228   2.367   0.156  0.00  0.00    -0.057 A 
ATOM     27  C   UNL A   1      -5.295   1.469   0.088  0.00  0.00    -0.061 A 
ENDBRANCH  21  25
ENDBRANCH  15  21
ENDBRANCH   1  18
TORSDOF 4
