MODEL 1
REMARK VINA RESULT:    -8.157      0.000      0.000
REMARK INTER + INTRA:         -10.904
REMARK INTER:                 -10.065
REMARK INTRA:                  -0.839
REMARK UNBOUND:                -0.839
REMARK  Name = cpd354.pdb
REMARK  4 active torsions:
REMARK  status: ('A' for Active; 'I' for Inactive)
REMARK    1  A    between atoms: C_4  and  C_5
REMARK    2  A    between atoms: C_5  and  N_6
REMARK    3  A    between atoms: C_9  and  C_10
REMARK    4  A    between atoms: C_10  and  N_11
REMARK                            x       y       z     vdW  Elec       q    Type
REMARK                         _______ _______ _______ _____ _____    ______ ____
ROOT
ATOM      1  C   UNL A   1      35.238 -35.867 -31.966  0.00  0.00    +0.049 C 
ENDROOT
BRANCH   1   2
ATOM      2  N   UNL A   1      36.248 -36.336 -31.022  0.00  0.00    -0.339 N 
ATOM      3  C   UNL A   1      35.990 -36.888 -29.791  0.00  0.00    +0.023 A 
ATOM      4  C   UNL A   1      37.196 -37.226 -29.208  0.00  0.00    -0.019 A 
ATOM      5  C   UNL A   1      38.229 -36.866 -30.114  0.00  0.00    +0.003 A 
ATOM      6  C   UNL A   1      39.635 -36.966 -30.077  0.00  0.00    -0.052 A 
ATOM      7  C   UNL A   1      40.391 -36.499 -31.155  0.00  0.00    -0.061 A 
ATOM      8  C   UNL A   1      39.766 -35.939 -32.265  0.00  0.00    -0.060 A 
ATOM      9  C   UNL A   1      38.374 -35.832 -32.329  0.00  0.00    -0.038 A 
ATOM     10  C   UNL A   1      37.617 -36.302 -31.241  0.00  0.00    +0.050 A 
ATOM     11  C   UNL A   1      37.296 -37.864 -27.862  0.00  0.00    -0.025 C 
ATOM     12  C   UNL A   1      35.980 -37.721 -27.077  0.00  0.00    -0.049 C 
ATOM     13  C   UNL A   1      34.753 -38.018 -27.954  0.00  0.00    -0.047 C 
ATOM     14  C   UNL A   1      34.649 -37.058 -29.153  0.00  0.00    -0.012 C 
ENDBRANCH   1   2
BRANCH   1  18
ATOM     15  N   UNL A   1      33.307 -32.221 -30.749  0.00  0.00    -0.349 N 
ATOM     16  C   UNL A   1      32.680 -33.076 -31.587  0.00  0.00    +0.005 A 
ATOM     17  C   UNL A   1      33.293 -34.262 -31.983  0.00  0.00    -0.041 A 
ATOM     18  C   UNL A   1      34.572 -34.579 -31.516  0.00  0.00    -0.025 A 
ATOM     19  C   UNL A   1      35.175 -33.696 -30.615  0.00  0.00    -0.041 A 
ATOM     20  C   UNL A   1      34.532 -32.518 -30.254  0.00  0.00    +0.005 A 
BRANCH  15  21
ATOM     21  C   UNL A   1      32.654 -30.945 -30.363  0.00  0.00    +0.048 C 
BRANCH  21  25
ATOM     22  C   UNL A   1      28.617 -31.624 -29.005  0.00  0.00    -0.062 A 
ATOM     23  C   UNL A   1      28.854 -30.832 -30.125  0.00  0.00    -0.061 A 
ATOM     24  C   UNL A   1      30.161 -30.609 -30.563  0.00  0.00    -0.057 A 
ATOM     25  C   UNL A   1      31.246 -31.182 -29.882  0.00  0.00    -0.028 A 
ATOM     26  C   UNL A   1      30.995 -31.969 -28.747  0.00  0.00    -0.057 A 
ATOM     27  C   UNL A   1      29.686 -32.191 -28.314  0.00  0.00    -0.061 A 
ENDBRANCH  21  25
ENDBRANCH  15  21
ENDBRANCH   1  18
TORSDOF 4
ENDMDL
MODEL 2
REMARK VINA RESULT:    -8.009      0.272      3.235
REMARK INTER + INTRA:         -10.721
REMARK INTER:                  -9.901
REMARK INTRA:                  -0.821
REMARK UNBOUND:                -0.839
REMARK  Name = cpd354.pdb
REMARK  4 active torsions:
REMARK  status: ('A' for Active; 'I' for Inactive)
REMARK    1  A    between atoms: C_4  and  C_5
REMARK    2  A    between atoms: C_5  and  N_6
REMARK    3  A    between atoms: C_9  and  C_10
REMARK    4  A    between atoms: C_10  and  N_11
REMARK                            x       y       z     vdW  Elec       q    Type
REMARK                         _______ _______ _______ _____ _____    ______ ____
ROOT
ATOM      1  C   UNL A   1      35.085 -35.796 -31.904  0.00  0.00    +0.049 C 
ENDROOT
BRANCH   1   2
ATOM      2  N   UNL A   1      36.066 -36.272 -30.932  0.00  0.00    -0.339 N 
ATOM      3  C   UNL A   1      37.425 -36.302 -31.125  0.00  0.00    +0.023 A 
ATOM      4  C   UNL A   1      38.013 -36.793 -29.975  0.00  0.00    -0.019 A 
ATOM      5  C   UNL A   1      36.976 -37.076 -29.047  0.00  0.00    +0.003 A 
ATOM      6  C   UNL A   1      36.958 -37.584 -27.732  0.00  0.00    -0.052 A 
ATOM      7  C   UNL A   1      35.738 -37.760 -27.074  0.00  0.00    -0.061 A 
ATOM      8  C   UNL A   1      34.542 -37.435 -27.706  0.00  0.00    -0.060 A 
ATOM      9  C   UNL A   1      34.532 -36.925 -29.008  0.00  0.00    -0.038 A 
ATOM     10  C   UNL A   1      35.762 -36.752 -29.667  0.00  0.00    +0.050 A 
ATOM     11  C   UNL A   1      39.489 -36.953 -29.824  0.00  0.00    -0.025 C 
ATOM     12  C   UNL A   1      40.200 -36.896 -31.188  0.00  0.00    -0.049 C 
ATOM     13  C   UNL A   1      39.660 -35.759 -32.070  0.00  0.00    -0.047 C 
ATOM     14  C   UNL A   1      38.158 -35.920 -32.369  0.00  0.00    -0.012 C 
ENDBRANCH   1   2
BRANCH   1  18
ATOM     15  N   UNL A   1      33.321 -32.068 -30.683  0.00  0.00    -0.349 N 
ATOM     16  C   UNL A   1      34.526 -32.442 -30.197  0.00  0.00    +0.005 A 
ATOM     17  C   UNL A   1      35.109 -33.643 -30.590  0.00  0.00    -0.041 A 
ATOM     18  C   UNL A   1      34.448 -34.480 -31.493  0.00  0.00    -0.025 A 
ATOM     19  C   UNL A   1      33.225 -34.044 -32.012  0.00  0.00    -0.041 A 
ATOM     20  C   UNL A   1      32.674 -32.841 -31.586  0.00  0.00    +0.005 A 
BRANCH  15  21
ATOM     21  C   UNL A   1      32.698 -30.799 -30.228  0.00  0.00    +0.048 C 
BRANCH  21  25
ATOM     22  C   UNL A   1      28.599 -31.433 -29.043  0.00  0.00    -0.062 A 
ATOM     23  C   UNL A   1      28.894 -30.616 -30.131  0.00  0.00    -0.061 A 
ATOM     24  C   UNL A   1      30.220 -30.408 -30.513  0.00  0.00    -0.057 A 
ATOM     25  C   UNL A   1      31.268 -31.021 -29.808  0.00  0.00    -0.028 A 
ATOM     26  C   UNL A   1      30.958 -31.833 -28.705  0.00  0.00    -0.057 A 
ATOM     27  C   UNL A   1      29.629 -32.040 -28.328  0.00  0.00    -0.061 A 
ENDBRANCH  21  25
ENDBRANCH  15  21
ENDBRANCH   1  18
TORSDOF 4
ENDMDL
MODEL 3
REMARK VINA RESULT:    -7.659      3.631      7.606
REMARK INTER + INTRA:         -10.289
REMARK INTER:                  -9.192
REMARK INTRA:                  -1.097
REMARK UNBOUND:                -0.839
REMARK  Name = cpd354.pdb
REMARK  4 active torsions:
REMARK  status: ('A' for Active; 'I' for Inactive)
REMARK    1  A    between atoms: C_4  and  C_5
REMARK    2  A    between atoms: C_5  and  N_6
REMARK    3  A    between atoms: C_9  and  C_10
REMARK    4  A    between atoms: C_10  and  N_11
REMARK                            x       y       z     vdW  Elec       q    Type
REMARK                         _______ _______ _______ _____ _____    ______ ____
ROOT
ATOM      1  C   UNL A   1      36.912 -37.985 -28.884  0.00  0.00    +0.049 C 
ENDROOT
BRANCH   1   2
ATOM      2  N   UNL A   1      36.958 -36.747 -29.658  0.00  0.00    -0.339 N 
ATOM      3  C   UNL A   1      38.004 -36.345 -30.451  0.00  0.00    +0.023 A 
ATOM      4  C   UNL A   1      37.664 -35.140 -31.033  0.00  0.00    -0.019 A 
ATOM      5  C   UNL A   1      36.365 -34.791 -30.578  0.00  0.00    +0.003 A 
ATOM      6  C   UNL A   1      35.508 -33.699 -30.824  0.00  0.00    -0.052 A 
ATOM      7  C   UNL A   1      34.260 -33.643 -30.197  0.00  0.00    -0.061 A 
ATOM      8  C   UNL A   1      33.858 -34.658 -29.336  0.00  0.00    -0.060 A 
ATOM      9  C   UNL A   1      34.686 -35.755 -29.079  0.00  0.00    -0.038 A 
ATOM     10  C   UNL A   1      35.941 -35.805 -29.710  0.00  0.00    +0.050 A 
ATOM     11  C   UNL A   1      38.566 -34.410 -31.974  0.00  0.00    -0.025 C 
ATOM     12  C   UNL A   1      40.009 -34.939 -31.886  0.00  0.00    -0.049 C 
ATOM     13  C   UNL A   1      40.057 -36.475 -31.848  0.00  0.00    -0.047 C 
ATOM     14  C   UNL A   1      39.310 -37.049 -30.630  0.00  0.00    -0.012 C 
ENDBRANCH   1   2
BRANCH   1  18
ATOM     15  N   UNL A   1      34.399 -40.944 -30.736  0.00  0.00    -0.349 N 
ATOM     16  C   UNL A   1      35.511 -40.505 -31.366  0.00  0.00    +0.005 A 
ATOM     17  C   UNL A   1      36.335 -39.552 -30.774  0.00  0.00    -0.041 A 
ATOM     18  C   UNL A   1      36.015 -39.035 -29.515  0.00  0.00    -0.025 A 
ATOM     19  C   UNL A   1      34.883 -39.542 -28.870  0.00  0.00    -0.041 A 
ATOM     20  C   UNL A   1      34.082 -40.487 -29.502  0.00  0.00    +0.005 A 
BRANCH  15  21
ATOM     21  C   UNL A   1      33.512 -41.935 -31.396  0.00  0.00    +0.048 C 
BRANCH  21  25
ATOM     22  C   UNL A   1      32.855 -40.890 -35.530  0.00  0.00    -0.062 A 
ATOM     23  C   UNL A   1      32.221 -40.174 -34.518  0.00  0.00    -0.061 A 
ATOM     24  C   UNL A   1      32.430 -40.514 -33.180  0.00  0.00    -0.057 A 
ATOM     25  C   UNL A   1      33.283 -41.577 -32.842  0.00  0.00    -0.028 A 
ATOM     26  C   UNL A   1      33.907 -42.299 -33.872  0.00  0.00    -0.057 A 
ATOM     27  C   UNL A   1      33.696 -41.953 -35.208  0.00  0.00    -0.061 A 
ENDBRANCH  21  25
ENDBRANCH  15  21
ENDBRANCH   1  18
TORSDOF 4
ENDMDL
MODEL 4
REMARK VINA RESULT:    -7.554      3.659      7.131
REMARK INTER + INTRA:         -10.159
REMARK INTER:                  -9.131
REMARK INTRA:                  -1.028
REMARK UNBOUND:                -0.839
REMARK  Name = cpd354.pdb
REMARK  4 active torsions:
REMARK  status: ('A' for Active; 'I' for Inactive)
REMARK    1  A    between atoms: C_4  and  C_5
REMARK    2  A    between atoms: C_5  and  N_6
REMARK    3  A    between atoms: C_9  and  C_10
REMARK    4  A    between atoms: C_10  and  N_11
REMARK                            x       y       z     vdW  Elec       q    Type
REMARK                         _______ _______ _______ _____ _____    ______ ____
ROOT
ATOM      1  C   UNL A   1      36.823 -37.985 -28.892  0.00  0.00    +0.049 C 
ENDROOT
BRANCH   1   2
ATOM      2  N   UNL A   1      36.888 -36.756 -29.678  0.00  0.00    -0.339 N 
ATOM      3  C   UNL A   1      35.920 -35.783 -29.713  0.00  0.00    +0.023 A 
ATOM      4  C   UNL A   1      36.355 -34.772 -30.548  0.00  0.00    -0.019 A 
ATOM      5  C   UNL A   1      37.634 -35.140 -31.042  0.00  0.00    +0.003 A 
ATOM      6  C   UNL A   1      38.556 -34.523 -31.913  0.00  0.00    -0.052 A 
ATOM      7  C   UNL A   1      39.758 -35.167 -32.216  0.00  0.00    -0.061 A 
ATOM      8  C   UNL A   1      40.052 -36.409 -31.665  0.00  0.00    -0.060 A 
ATOM      9  C   UNL A   1      39.158 -37.041 -30.796  0.00  0.00    -0.038 A 
ATOM     10  C   UNL A   1      37.949 -36.390 -30.494  0.00  0.00    +0.050 A 
ATOM     11  C   UNL A   1      35.555 -33.539 -30.814  0.00  0.00    -0.025 C 
ATOM     12  C   UNL A   1      34.087 -33.724 -30.392  0.00  0.00    -0.049 C 
ATOM     13  C   UNL A   1      33.965 -34.411 -29.022  0.00  0.00    -0.047 C 
ATOM     14  C   UNL A   1      34.598 -35.814 -29.017  0.00  0.00    -0.012 C 
ENDBRANCH   1   2
BRANCH   1  18
ATOM     15  N   UNL A   1      34.341 -40.956 -30.766  0.00  0.00    -0.349 N 
ATOM     16  C   UNL A   1      35.449 -40.502 -31.393  0.00  0.00    +0.005 A 
ATOM     17  C   UNL A   1      36.263 -39.545 -30.793  0.00  0.00    -0.041 A 
ATOM     18  C   UNL A   1      35.937 -39.040 -29.531  0.00  0.00    -0.025 A 
ATOM     19  C   UNL A   1      34.810 -39.562 -28.890  0.00  0.00    -0.041 A 
ATOM     20  C   UNL A   1      34.019 -40.510 -29.529  0.00  0.00    +0.005 A 
BRANCH  15  21
ATOM     21  C   UNL A   1      33.465 -41.952 -31.434  0.00  0.00    +0.048 C 
BRANCH  21  25
ATOM     22  C   UNL A   1      32.868 -40.967 -35.591  0.00  0.00    -0.062 A 
ATOM     23  C   UNL A   1      33.640 -42.070 -35.237  0.00  0.00    -0.061 A 
ATOM     24  C   UNL A   1      33.837 -42.387 -33.892  0.00  0.00    -0.057 A 
ATOM     25  C   UNL A   1      33.256 -41.601 -32.884  0.00  0.00    -0.028 A 
ATOM     26  C   UNL A   1      32.489 -40.485 -33.253  0.00  0.00    -0.057 A 
ATOM     27  C   UNL A   1      32.294 -40.173 -34.600  0.00  0.00    -0.061 A 
ENDBRANCH  21  25
ENDBRANCH  15  21
ENDBRANCH   1  18
TORSDOF 4
ENDMDL
MODEL 5
REMARK VINA RESULT:    -7.381      3.821      7.015
REMARK INTER + INTRA:          -9.946
REMARK INTER:                  -8.899
REMARK INTRA:                  -1.047
REMARK UNBOUND:                -0.839
REMARK  Name = cpd354.pdb
REMARK  4 active torsions:
REMARK  status: ('A' for Active; 'I' for Inactive)
REMARK    1  A    between atoms: C_4  and  C_5
REMARK    2  A    between atoms: C_5  and  N_6
REMARK    3  A    between atoms: C_9  and  C_10
REMARK    4  A    between atoms: C_10  and  N_11
REMARK                            x       y       z     vdW  Elec       q    Type
REMARK                         _______ _______ _______ _____ _____    ______ ____
ROOT
ATOM      1  C   UNL A   1      33.264 -36.867 -28.720  0.00  0.00    +0.049 C 
ENDROOT
BRANCH   1   2
ATOM      2  N   UNL A   1      34.305 -36.082 -29.379  0.00  0.00    -0.339 N 
ATOM      3  C   UNL A   1      34.180 -34.773 -29.777  0.00  0.00    +0.023 A 
ATOM      4  C   UNL A   1      35.379 -34.377 -30.337  0.00  0.00    -0.019 A 
ATOM      5  C   UNL A   1      36.268 -35.483 -30.281  0.00  0.00    +0.003 A 
ATOM      6  C   UNL A   1      37.604 -35.680 -30.687  0.00  0.00    -0.052 A 
ATOM      7  C   UNL A   1      38.209 -36.925 -30.496  0.00  0.00    -0.061 A 
ATOM      8  C   UNL A   1      37.504 -37.969 -29.907  0.00  0.00    -0.060 A 
ATOM      9  C   UNL A   1      36.181 -37.799 -29.490  0.00  0.00    -0.038 A 
ATOM     10  C   UNL A   1      35.575 -36.545 -29.686  0.00  0.00    +0.050 A 
ATOM     11  C   UNL A   1      35.611 -33.002 -30.870  0.00  0.00    -0.025 C 
ATOM     12  C   UNL A   1      34.282 -32.255 -31.083  0.00  0.00    -0.049 C 
ATOM     13  C   UNL A   1      33.320 -32.443 -29.899  0.00  0.00    -0.047 C 
ATOM     14  C   UNL A   1      32.956 -33.923 -29.676  0.00  0.00    -0.012 C 
ENDBRANCH   1   2
BRANCH   1  18
ATOM     15  N   UNL A   1      33.266 -36.348 -24.450  0.00  0.00    -0.349 N 
ATOM     16  C   UNL A   1      32.321 -35.748 -25.208  0.00  0.00    +0.005 A 
ATOM     17  C   UNL A   1      32.307 -35.914 -26.590  0.00  0.00    -0.041 A 
ATOM     18  C   UNL A   1      33.279 -36.705 -27.211  0.00  0.00    -0.025 A 
ATOM     19  C   UNL A   1      34.215 -37.348 -26.395  0.00  0.00    -0.041 A 
ATOM     20  C   UNL A   1      34.199 -37.147 -25.019  0.00  0.00    +0.005 A 
BRANCH  15  21
ATOM     21  C   UNL A   1      33.287 -36.134 -22.981  0.00  0.00    +0.048 C 
BRANCH  21  25
ATOM     22  C   UNL A   1      33.260 -39.904 -20.886  0.00  0.00    -0.062 A 
ATOM     23  C   UNL A   1      32.265 -39.614 -21.815  0.00  0.00    -0.061 A 
ATOM     24  C   UNL A   1      32.271 -38.392 -22.491  0.00  0.00    -0.057 A 
ATOM     25  C   UNL A   1      33.280 -37.448 -22.244  0.00  0.00    -0.028 A 
ATOM     26  C   UNL A   1      34.272 -37.749 -21.296  0.00  0.00    -0.057 A 
ATOM     27  C   UNL A   1      34.262 -38.973 -20.624  0.00  0.00    -0.061 A 
ENDBRANCH  21  25
ENDBRANCH  15  21
ENDBRANCH   1  18
TORSDOF 4
ENDMDL
MODEL 6
REMARK VINA RESULT:    -7.302     19.034     21.226
REMARK INTER + INTRA:          -9.849
REMARK INTER:                  -8.988
REMARK INTRA:                  -0.861
REMARK UNBOUND:                -0.839
REMARK  Name = cpd354.pdb
REMARK  4 active torsions:
REMARK  status: ('A' for Active; 'I' for Inactive)
REMARK    1  A    between atoms: C_4  and  C_5
REMARK    2  A    between atoms: C_5  and  N_6
REMARK    3  A    between atoms: C_9  and  C_10
REMARK    4  A    between atoms: C_10  and  N_11
REMARK                            x       y       z     vdW  Elec       q    Type
REMARK                         _______ _______ _______ _____ _____    ______ ____
ROOT
ATOM      1  C   UNL A   1      47.118 -19.419 -38.404  0.00  0.00    +0.049 C 
ENDROOT
BRANCH   1   2
ATOM      2  N   UNL A   1      46.246 -19.305 -39.570  0.00  0.00    -0.339 N 
ATOM      3  C   UNL A   1      45.555 -18.176 -39.938  0.00  0.00    +0.023 A 
ATOM      4  C   UNL A   1      44.864 -18.455 -41.101  0.00  0.00    -0.019 A 
ATOM      5  C   UNL A   1      45.142 -19.801 -41.457  0.00  0.00    +0.003 A 
ATOM      6  C   UNL A   1      44.735 -20.630 -42.522  0.00  0.00    -0.052 A 
ATOM      7  C   UNL A   1      45.189 -21.950 -42.585  0.00  0.00    -0.061 A 
ATOM      8  C   UNL A   1      46.041 -22.450 -41.605  0.00  0.00    -0.060 A 
ATOM      9  C   UNL A   1      46.463 -21.648 -40.541  0.00  0.00    -0.038 A 
ATOM     10  C   UNL A   1      46.002 -20.321 -40.481  0.00  0.00    +0.050 A 
ATOM     11  C   UNL A   1      44.010 -17.447 -41.798  0.00  0.00    -0.025 C 
ATOM     12  C   UNL A   1      43.684 -16.259 -40.876  0.00  0.00    -0.049 C 
ATOM     13  C   UNL A   1      44.921 -15.777 -40.100  0.00  0.00    -0.047 C 
ATOM     14  C   UNL A   1      45.505 -16.880 -39.197  0.00  0.00    -0.012 C 
ENDBRANCH   1   2
BRANCH   1  18
ATOM     15  N   UNL A   1      45.013 -19.206 -34.659  0.00  0.00    -0.349 N 
ATOM     16  C   UNL A   1      46.185 -18.552 -34.819  0.00  0.00    +0.005 A 
ATOM     17  C   UNL A   1      46.872 -18.609 -36.028  0.00  0.00    -0.041 A 
ATOM     18  C   UNL A   1      46.354 -19.350 -37.094  0.00  0.00    -0.025 A 
ATOM     19  C   UNL A   1      45.118 -19.978 -36.912  0.00  0.00    -0.041 A 
ATOM     20  C   UNL A   1      44.470 -19.903 -35.684  0.00  0.00    +0.005 A 
BRANCH  15  21
ATOM     21  C   UNL A   1      44.310 -19.163 -33.352  0.00  0.00    +0.048 C 
BRANCH  21  25
ATOM     22  C   UNL A   1      43.912 -15.109 -31.935  0.00  0.00    -0.062 A 
ATOM     23  C   UNL A   1      43.045 -15.597 -32.908  0.00  0.00    -0.061 A 
ATOM     24  C   UNL A   1      43.175 -16.908 -33.370  0.00  0.00    -0.057 A 
ATOM     25  C   UNL A   1      44.177 -17.747 -32.856  0.00  0.00    -0.028 A 
ATOM     26  C   UNL A   1      45.053 -17.238 -31.883  0.00  0.00    -0.057 A 
ATOM     27  C   UNL A   1      44.917 -15.927 -31.423  0.00  0.00    -0.061 A 
ENDBRANCH  21  25
ENDBRANCH  15  21
ENDBRANCH   1  18
TORSDOF 4
ENDMDL
MODEL 7
REMARK VINA RESULT:    -7.275     34.514     36.671
REMARK INTER + INTRA:          -9.815
REMARK INTER:                  -8.632
REMARK INTRA:                  -1.183
REMARK UNBOUND:                -0.839
REMARK  Name = cpd354.pdb
REMARK  4 active torsions:
REMARK  status: ('A' for Active; 'I' for Inactive)
REMARK    1  A    between atoms: C_4  and  C_5
REMARK    2  A    between atoms: C_5  and  N_6
REMARK    3  A    between atoms: C_9  and  C_10
REMARK    4  A    between atoms: C_10  and  N_11
REMARK                            x       y       z     vdW  Elec       q    Type
REMARK                         _______ _______ _______ _____ _____    ______ ____
ROOT
ATOM      1  C   UNL A   1      63.280 -18.806  -9.199  0.00  0.00    +0.049 C 
ENDROOT
BRANCH   1   2
ATOM      2  N   UNL A   1      63.239 -20.073  -8.475  0.00  0.00    -0.339 N 
ATOM      3  C   UNL A   1      63.157 -20.206  -7.110  0.00  0.00    +0.023 A 
ATOM      4  C   UNL A   1      63.117 -21.554  -6.811  0.00  0.00    -0.019 A 
ATOM      5  C   UNL A   1      63.180 -22.271  -8.035  0.00  0.00    +0.003 A 
ATOM      6  C   UNL A   1      63.176 -23.643  -8.361  0.00  0.00    -0.052 A 
ATOM      7  C   UNL A   1      63.261 -24.036  -9.699  0.00  0.00    -0.061 A 
ATOM      8  C   UNL A   1      63.348 -23.085 -10.710  0.00  0.00    -0.060 A 
ATOM      9  C   UNL A   1      63.349 -21.718 -10.415  0.00  0.00    -0.038 A 
ATOM     10  C   UNL A   1      63.265 -21.327  -9.066  0.00  0.00    +0.050 A 
ATOM     11  C   UNL A   1      63.015 -22.072  -5.414  0.00  0.00    -0.025 C 
ATOM     12  C   UNL A   1      63.362 -20.979  -4.387  0.00  0.00    -0.049 C 
ATOM     13  C   UNL A   1      62.703 -19.635  -4.733  0.00  0.00    -0.047 C 
ATOM     14  C   UNL A   1      63.158 -19.102  -6.105  0.00  0.00    -0.012 C 
ENDBRANCH   1   2
BRANCH   1  18
ATOM     15  N   UNL A   1      59.433 -17.756 -10.811  0.00  0.00    -0.349 N 
ATOM     16  C   UNL A   1      59.586 -17.944  -9.481  0.00  0.00    +0.005 A 
ATOM     17  C   UNL A   1      60.827 -18.278  -8.948  0.00  0.00    -0.041 A 
ATOM     18  C   UNL A   1      61.934 -18.426  -9.788  0.00  0.00    -0.025 A 
ATOM     19  C   UNL A   1      61.754 -18.181 -11.153  0.00  0.00    -0.041 A 
ATOM     20  C   UNL A   1      60.494 -17.859 -11.645  0.00  0.00    +0.005 A 
BRANCH  15  21
ATOM     21  C   UNL A   1      58.095 -17.434 -11.368  0.00  0.00    +0.048 C 
BRANCH  21  25
ATOM     22  C   UNL A   1      56.899 -20.351 -14.311  0.00  0.00    -0.062 A 
ATOM     23  C   UNL A   1      57.055 -20.725 -12.980  0.00  0.00    -0.061 A 
ATOM     24  C   UNL A   1      57.446 -19.782 -12.027  0.00  0.00    -0.057 A 
ATOM     25  C   UNL A   1      57.681 -18.449 -12.400  0.00  0.00    -0.028 A 
ATOM     26  C   UNL A   1      57.531 -18.087 -13.749  0.00  0.00    -0.057 A 
ATOM     27  C   UNL A   1      57.138 -19.034 -14.697  0.00  0.00    -0.061 A 
ENDBRANCH  21  25
ENDBRANCH  15  21
ENDBRANCH   1  18
TORSDOF 4
ENDMDL
MODEL 8
REMARK VINA RESULT:    -7.256     16.304     18.470
REMARK INTER + INTRA:          -9.792
REMARK INTER:                  -8.617
REMARK INTRA:                  -1.175
REMARK UNBOUND:                -0.839
REMARK  Name = cpd354.pdb
REMARK  4 active torsions:
REMARK  status: ('A' for Active; 'I' for Inactive)
REMARK    1  A    between atoms: C_4  and  C_5
REMARK    2  A    between atoms: C_5  and  N_6
REMARK    3  A    between atoms: C_9  and  C_10
REMARK    4  A    between atoms: C_10  and  N_11
REMARK                            x       y       z     vdW  Elec       q    Type
REMARK                         _______ _______ _______ _____ _____    ______ ____
ROOT
ATOM      1  C   UNL A   1      43.078 -19.904 -40.053  0.00  0.00    +0.049 C 
ENDROOT
BRANCH   1   2
ATOM      2  N   UNL A   1      44.453 -20.171 -39.640  0.00  0.00    -0.339 N 
ATOM      3  C   UNL A   1      45.307 -21.059 -40.247  0.00  0.00    +0.023 A 
ATOM      4  C   UNL A   1      46.519 -21.012 -39.586  0.00  0.00    -0.019 A 
ATOM      5  C   UNL A   1      46.401 -20.063 -38.536  0.00  0.00    +0.003 A 
ATOM      6  C   UNL A   1      47.288 -19.593 -37.546  0.00  0.00    -0.052 A 
ATOM      7  C   UNL A   1      46.854 -18.635 -36.626  0.00  0.00    -0.061 A 
ATOM      8  C   UNL A   1      45.554 -18.141 -36.683  0.00  0.00    -0.060 A 
ATOM      9  C   UNL A   1      44.657 -18.587 -37.657  0.00  0.00    -0.038 A 
ATOM     10  C   UNL A   1      45.098 -19.553 -38.579  0.00  0.00    +0.050 A 
ATOM     11  C   UNL A   1      47.693 -21.843 -39.985  0.00  0.00    -0.025 C 
ATOM     12  C   UNL A   1      47.271 -22.997 -40.913  0.00  0.00    -0.049 C 
ATOM     13  C   UNL A   1      46.284 -22.532 -41.996  0.00  0.00    -0.047 C 
ATOM     14  C   UNL A   1      44.986 -21.963 -41.393  0.00  0.00    -0.012 C 
ENDBRANCH   1   2
BRANCH   1  18
ATOM     15  N   UNL A   1      40.183 -21.122 -37.115  0.00  0.00    -0.349 N 
ATOM     16  C   UNL A   1      40.168 -19.861 -37.603  0.00  0.00    +0.005 A 
ATOM     17  C   UNL A   1      41.097 -19.458 -38.558  0.00  0.00    -0.041 A 
ATOM     18  C   UNL A   1      42.060 -20.358 -39.022  0.00  0.00    -0.025 A 
ATOM     19  C   UNL A   1      42.020 -21.666 -38.532  0.00  0.00    -0.041 A 
ATOM     20  C   UNL A   1      41.082 -22.025 -37.571  0.00  0.00    +0.005 A 
BRANCH  15  21
ATOM     21  C   UNL A   1      39.207 -21.526 -36.071  0.00  0.00    +0.048 C 
BRANCH  21  25
ATOM     22  C   UNL A   1      41.200 -22.387 -32.344  0.00  0.00    -0.062 A 
ATOM     23  C   UNL A   1      40.451 -23.372 -32.980  0.00  0.00    -0.061 A 
ATOM     24  C   UNL A   1      39.802 -23.093 -34.185  0.00  0.00    -0.057 A 
ATOM     25  C   UNL A   1      39.902 -21.820 -34.768  0.00  0.00    -0.028 A 
ATOM     26  C   UNL A   1      40.652 -20.831 -34.110  0.00  0.00    -0.057 A 
ATOM     27  C   UNL A   1      41.300 -21.116 -32.907  0.00  0.00    -0.061 A 
ENDBRANCH  21  25
ENDBRANCH  15  21
ENDBRANCH   1  18
TORSDOF 4
ENDMDL
MODEL 9
REMARK VINA RESULT:    -7.218     25.813     28.679
REMARK INTER + INTRA:          -9.745
REMARK INTER:                  -8.557
REMARK INTRA:                  -1.188
REMARK UNBOUND:                -0.839
REMARK  Name = cpd354.pdb
REMARK  4 active torsions:
REMARK  status: ('A' for Active; 'I' for Inactive)
REMARK    1  A    between atoms: C_4  and  C_5
REMARK    2  A    between atoms: C_5  and  N_6
REMARK    3  A    between atoms: C_9  and  C_10
REMARK    4  A    between atoms: C_10  and  N_11
REMARK                            x       y       z     vdW  Elec       q    Type
REMARK                         _______ _______ _______ _____ _____    ______ ____
ROOT
ATOM      1  C   UNL A   1      56.305 -35.862 -50.668  0.00  0.00    +0.049 C 
ENDROOT
BRANCH   1   2
ATOM      2  N   UNL A   1      55.342 -36.074 -49.590  0.00  0.00    -0.339 N 
ATOM      3  C   UNL A   1      54.324 -36.995 -49.604  0.00  0.00    +0.023 A 
ATOM      4  C   UNL A   1      53.648 -36.909 -48.402  0.00  0.00    -0.019 A 
ATOM      5  C   UNL A   1      54.275 -35.898 -47.626  0.00  0.00    +0.003 A 
ATOM      6  C   UNL A   1      54.039 -35.372 -46.339  0.00  0.00    -0.052 A 
ATOM      7  C   UNL A   1      54.852 -34.345 -45.852  0.00  0.00    -0.061 A 
ATOM      8  C   UNL A   1      55.891 -33.840 -46.626  0.00  0.00    -0.060 A 
ATOM      9  C   UNL A   1      56.150 -34.347 -47.902  0.00  0.00    -0.038 A 
ATOM     10  C   UNL A   1      55.329 -35.379 -48.389  0.00  0.00    +0.050 A 
ATOM     11  C   UNL A   1      52.482 -37.777 -48.063  0.00  0.00    -0.025 C 
ATOM     12  C   UNL A   1      51.903 -38.450 -49.320  0.00  0.00    -0.049 C 
ATOM     13  C   UNL A   1      53.007 -39.008 -50.233  0.00  0.00    -0.047 C 
ATOM     14  C   UNL A   1      53.961 -37.906 -50.731  0.00  0.00    -0.012 C 
ENDBRANCH   1   2
BRANCH   1  18
ATOM     15  N   UNL A   1      55.131 -32.674 -53.305  0.00  0.00    -0.349 N 
ATOM     16  C   UNL A   1      55.952 -32.426 -52.261  0.00  0.00    +0.005 A 
ATOM     17  C   UNL A   1      56.343 -33.451 -51.404  0.00  0.00    -0.041 A 
ATOM     18  C   UNL A   1      55.885 -34.754 -51.616  0.00  0.00    -0.025 A 
ATOM     19  C   UNL A   1      55.073 -34.987 -52.731  0.00  0.00    -0.041 A 
ATOM     20  C   UNL A   1      54.699 -33.932 -53.556  0.00  0.00    +0.005 A 
BRANCH  15  21
ATOM     21  C   UNL A   1      54.696 -31.564 -54.190  0.00  0.00    +0.048 C 
BRANCH  21  25
ATOM     22  C   UNL A   1      50.404 -31.132 -54.135  0.00  0.00    -0.062 A 
ATOM     23  C   UNL A   1      51.138 -30.978 -52.961  0.00  0.00    -0.061 A 
ATOM     24  C   UNL A   1      52.526 -31.121 -52.978  0.00  0.00    -0.057 A 
ATOM     25  C   UNL A   1      53.197 -31.417 -54.175  0.00  0.00    -0.028 A 
ATOM     26  C   UNL A   1      52.444 -31.582 -55.350  0.00  0.00    -0.057 A 
ATOM     27  C   UNL A   1      51.056 -31.435 -55.328  0.00  0.00    -0.061 A 
ENDBRANCH  21  25
ENDBRANCH  15  21
ENDBRANCH   1  18
TORSDOF 4
ENDMDL
MODEL 10
REMARK VINA RESULT:    -7.178      3.776      7.361
REMARK INTER + INTRA:          -9.696
REMARK INTER:                  -8.687
REMARK INTRA:                  -1.009
REMARK UNBOUND:                -0.839
REMARK  Name = cpd354.pdb
REMARK  4 active torsions:
REMARK  status: ('A' for Active; 'I' for Inactive)
REMARK    1  A    between atoms: C_4  and  C_5
REMARK    2  A    between atoms: C_5  and  N_6
REMARK    3  A    between atoms: C_9  and  C_10
REMARK    4  A    between atoms: C_10  and  N_11
REMARK                            x       y       z     vdW  Elec       q    Type
REMARK                         _______ _______ _______ _____ _____    ______ ____
ROOT
ATOM      1  C   UNL A   1      33.215 -36.904 -28.786  0.00  0.00    +0.049 C 
ENDROOT
BRANCH   1   2
ATOM      2  N   UNL A   1      34.138 -35.969 -29.426  0.00  0.00    -0.339 N 
ATOM      3  C   UNL A   1      35.395 -36.282 -29.882  0.00  0.00    +0.023 A 
ATOM      4  C   UNL A   1      35.944 -35.144 -30.442  0.00  0.00    -0.019 A 
ATOM      5  C   UNL A   1      34.990 -34.100 -30.322  0.00  0.00    +0.003 A 
ATOM      6  C   UNL A   1      34.980 -32.742 -30.703  0.00  0.00    -0.052 A 
ATOM      7  C   UNL A   1      33.860 -31.954 -30.426  0.00  0.00    -0.061 A 
ATOM      8  C   UNL A   1      32.756 -32.499 -29.780  0.00  0.00    -0.060 A 
ATOM      9  C   UNL A   1      32.738 -33.843 -29.396  0.00  0.00    -0.038 A 
ATOM     10  C   UNL A   1      33.868 -34.632 -29.675  0.00  0.00    +0.050 A 
ATOM     11  C   UNL A   1      37.306 -35.118 -31.053  0.00  0.00    -0.025 C 
ATOM     12  C   UNL A   1      38.133 -36.344 -30.626  0.00  0.00    -0.049 C 
ATOM     13  C   UNL A   1      37.312 -37.642 -30.692  0.00  0.00    -0.047 C 
ATOM     14  C   UNL A   1      36.086 -37.601 -29.761  0.00  0.00    -0.012 C 
ENDBRANCH   1   2
BRANCH   1  18
ATOM     15  N   UNL A   1      33.137 -36.495 -24.506  0.00  0.00    -0.349 N 
ATOM     16  C   UNL A   1      34.177 -37.110 -25.112  0.00  0.00    +0.005 A 
ATOM     17  C   UNL A   1      34.216 -37.242 -26.497  0.00  0.00    -0.041 A 
ATOM     18  C   UNL A   1      33.171 -36.741 -27.278  0.00  0.00    -0.025 A 
ATOM     19  C   UNL A   1      32.132 -36.071 -26.625  0.00  0.00    -0.041 A 
ATOM     20  C   UNL A   1      32.128 -35.969 -25.238  0.00  0.00    +0.005 A 
BRANCH  15  21
ATOM     21  C   UNL A   1      33.094 -36.392 -23.025  0.00  0.00    +0.048 C 
BRANCH  21  25
ATOM     22  C   UNL A   1      33.521 -40.281 -21.208  0.00  0.00    -0.062 A 
ATOM     23  C   UNL A   1      32.538 -40.062 -22.168  0.00  0.00    -0.061 A 
ATOM     24  C   UNL A   1      32.397 -38.803 -22.754  0.00  0.00    -0.057 A 
ATOM     25  C   UNL A   1      33.245 -37.747 -22.385  0.00  0.00    -0.028 A 
ATOM     26  C   UNL A   1      34.226 -37.978 -21.406  0.00  0.00    -0.057 A 
ATOM     27  C   UNL A   1      34.364 -39.240 -20.825  0.00  0.00    -0.061 A 
ENDBRANCH  21  25
ENDBRANCH  15  21
ENDBRANCH   1  18
TORSDOF 4
ENDMDL
MODEL 11
REMARK VINA RESULT:    -7.177     15.705     19.002
REMARK INTER + INTRA:          -9.694
REMARK INTER:                  -8.681
REMARK INTRA:                  -1.013
REMARK UNBOUND:                -0.839
REMARK  Name = cpd354.pdb
REMARK  4 active torsions:
REMARK  status: ('A' for Active; 'I' for Inactive)
REMARK    1  A    between atoms: C_4  and  C_5
REMARK    2  A    between atoms: C_5  and  N_6
REMARK    3  A    between atoms: C_9  and  C_10
REMARK    4  A    between atoms: C_10  and  N_11
REMARK                            x       y       z     vdW  Elec       q    Type
REMARK                         _______ _______ _______ _____ _____    ______ ____
ROOT
ATOM      1  C   UNL A   1      40.430 -22.146 -37.664  0.00  0.00    +0.049 C 
ENDROOT
BRANCH   1   2
ATOM      2  N   UNL A   1      39.844 -21.142 -36.781  0.00  0.00    -0.339 N 
ATOM      3  C   UNL A   1      39.869 -21.180 -35.408  0.00  0.00    +0.023 A 
ATOM      4  C   UNL A   1      39.234 -20.048 -34.934  0.00  0.00    -0.019 A 
ATOM      5  C   UNL A   1      38.804 -19.292 -36.057  0.00  0.00    +0.003 A 
ATOM      6  C   UNL A   1      38.118 -18.069 -36.202  0.00  0.00    -0.052 A 
ATOM      7  C   UNL A   1      37.828 -17.585 -37.480  0.00  0.00    -0.061 A 
ATOM      8  C   UNL A   1      38.213 -18.301 -38.609  0.00  0.00    -0.060 A 
ATOM      9  C   UNL A   1      38.898 -19.514 -38.494  0.00  0.00    -0.038 A 
ATOM     10  C   UNL A   1      39.186 -19.997 -37.205  0.00  0.00    +0.050 A 
ATOM     11  C   UNL A   1      39.086 -19.751 -33.479  0.00  0.00    -0.025 C 
ATOM     12  C   UNL A   1      39.346 -21.004 -32.624  0.00  0.00    -0.049 C 
ATOM     13  C   UNL A   1      40.583 -21.780 -33.103  0.00  0.00    -0.047 C 
ATOM     14  C   UNL A   1      40.435 -22.269 -34.556  0.00  0.00    -0.012 C 
ENDBRANCH   1   2
BRANCH   1  18
ATOM     15  N   UNL A   1      43.836 -20.707 -39.862  0.00  0.00    -0.349 N 
ATOM     16  C   UNL A   1      42.768 -21.215 -40.517  0.00  0.00    +0.005 A 
ATOM     17  C   UNL A   1      41.658 -21.678 -39.816  0.00  0.00    -0.041 A 
ATOM     18  C   UNL A   1      41.639 -21.625 -38.420  0.00  0.00    -0.025 A 
ATOM     19  C   UNL A   1      42.740 -21.053 -37.774  0.00  0.00    -0.041 A 
ATOM     20  C   UNL A   1      43.832 -20.611 -38.512  0.00  0.00    +0.005 A 
BRANCH  15  21
ATOM     21  C   UNL A   1      45.026 -20.249 -40.622  0.00  0.00    +0.048 C 
BRANCH  21  25
ATOM     22  C   UNL A   1      47.479 -23.597 -41.798  0.00  0.00    -0.062 A 
ATOM     23  C   UNL A   1      47.646 -23.014 -40.545  0.00  0.00    -0.061 A 
ATOM     24  C   UNL A   1      46.854 -21.928 -40.165  0.00  0.00    -0.057 A 
ATOM     25  C   UNL A   1      45.883 -21.416 -41.039  0.00  0.00    -0.028 A 
ATOM     26  C   UNL A   1      45.733 -22.005 -42.305  0.00  0.00    -0.057 A 
ATOM     27  C   UNL A   1      46.525 -23.093 -42.679  0.00  0.00    -0.061 A 
ENDBRANCH  21  25
ENDBRANCH  15  21
ENDBRANCH   1  18
TORSDOF 4
ENDMDL
MODEL 12
REMARK VINA RESULT:    -7.146     16.493     18.553
REMARK INTER + INTRA:          -9.657
REMARK INTER:                  -8.621
REMARK INTRA:                  -1.035
REMARK UNBOUND:                -0.839
REMARK  Name = cpd354.pdb
REMARK  4 active torsions:
REMARK  status: ('A' for Active; 'I' for Inactive)
REMARK    1  A    between atoms: C_4  and  C_5
REMARK    2  A    between atoms: C_5  and  N_6
REMARK    3  A    between atoms: C_9  and  C_10
REMARK    4  A    between atoms: C_10  and  N_11
REMARK                            x       y       z     vdW  Elec       q    Type
REMARK                         _______ _______ _______ _____ _____    ______ ____
ROOT
ATOM      1  C   UNL A   1      43.093 -20.049 -40.607  0.00  0.00    +0.049 C 
ENDROOT
BRANCH   1   2
ATOM      2  N   UNL A   1      44.486 -20.283 -40.237  0.00  0.00    -0.339 N 
ATOM      3  C   UNL A   1      45.137 -19.693 -39.181  0.00  0.00    +0.023 A 
ATOM      4  C   UNL A   1      46.428 -20.183 -39.143  0.00  0.00    -0.019 A 
ATOM      5  C   UNL A   1      46.572 -21.103 -40.214  0.00  0.00    +0.003 A 
ATOM      6  C   UNL A   1      47.638 -21.905 -40.672  0.00  0.00    -0.052 A 
ATOM      7  C   UNL A   1      47.459 -22.720 -41.793  0.00  0.00    -0.061 A 
ATOM      8  C   UNL A   1      46.238 -22.748 -42.457  0.00  0.00    -0.060 A 
ATOM      9  C   UNL A   1      45.163 -21.967 -42.022  0.00  0.00    -0.038 A 
ATOM     10  C   UNL A   1      45.349 -21.146 -40.894  0.00  0.00    +0.050 A 
ATOM     11  C   UNL A   1      47.423 -19.767 -38.110  0.00  0.00    -0.025 C 
ATOM     12  C   UNL A   1      46.977 -18.481 -37.391  0.00  0.00    -0.049 C 
ATOM     13  C   UNL A   1      45.486 -18.521 -37.016  0.00  0.00    -0.047 C 
ATOM     14  C   UNL A   1      44.580 -18.662 -38.253  0.00  0.00    -0.012 C 
ENDBRANCH   1   2
BRANCH   1  18
ATOM     15  N   UNL A   1      40.310 -21.506 -37.669  0.00  0.00    -0.349 N 
ATOM     16  C   UNL A   1      40.192 -20.250 -38.154  0.00  0.00    +0.005 A 
ATOM     17  C   UNL A   1      41.083 -19.770 -39.110  0.00  0.00    -0.041 A 
ATOM     18  C   UNL A   1      42.117 -20.587 -39.576  0.00  0.00    -0.025 A 
ATOM     19  C   UNL A   1      42.185 -21.895 -39.088  0.00  0.00    -0.041 A 
ATOM     20  C   UNL A   1      41.280 -22.331 -38.127  0.00  0.00    +0.005 A 
BRANCH  15  21
ATOM     21  C   UNL A   1      39.372 -21.991 -36.625  0.00  0.00    +0.048 C 
BRANCH  21  25
ATOM     22  C   UNL A   1      41.253 -22.000 -32.744  0.00  0.00    -0.062 A 
ATOM     23  C   UNL A   1      41.405 -20.907 -33.592  0.00  0.00    -0.061 A 
ATOM     24  C   UNL A   1      40.799 -20.905 -34.849  0.00  0.00    -0.057 A 
ATOM     25  C   UNL A   1      40.030 -22.001 -35.270  0.00  0.00    -0.028 A 
ATOM     26  C   UNL A   1      39.894 -23.103 -34.410  0.00  0.00    -0.057 A 
ATOM     27  C   UNL A   1      40.500 -23.099 -33.152  0.00  0.00    -0.061 A 
ENDBRANCH  21  25
ENDBRANCH  15  21
ENDBRANCH   1  18
TORSDOF 4
ENDMDL
MODEL 13
REMARK VINA RESULT:    -7.141     34.906     37.169
REMARK INTER + INTRA:          -9.650
REMARK INTER:                  -8.562
REMARK INTRA:                  -1.089
REMARK UNBOUND:                -0.839
REMARK  Name = cpd354.pdb
REMARK  4 active torsions:
REMARK  status: ('A' for Active; 'I' for Inactive)
REMARK    1  A    between atoms: C_4  and  C_5
REMARK    2  A    between atoms: C_5  and  N_6
REMARK    3  A    between atoms: C_9  and  C_10
REMARK    4  A    between atoms: C_10  and  N_11
REMARK                            x       y       z     vdW  Elec       q    Type
REMARK                         _______ _______ _______ _____ _____    ______ ____
ROOT
ATOM      1  C   UNL A   1      63.929 -20.015  -8.377  0.00  0.00    +0.049 C 
ENDROOT
BRANCH   1   2
ATOM      2  N   UNL A   1      63.594 -21.240  -7.656  0.00  0.00    -0.339 N 
ATOM      3  C   UNL A   1      63.300 -22.449  -8.237  0.00  0.00    +0.023 A 
ATOM      4  C   UNL A   1      63.062 -23.365  -7.231  0.00  0.00    -0.019 A 
ATOM      5  C   UNL A   1      63.213 -22.691  -5.990  0.00  0.00    +0.003 A 
ATOM      6  C   UNL A   1      63.099 -23.094  -4.643  0.00  0.00    -0.052 A 
ATOM      7  C   UNL A   1      63.305 -22.163  -3.622  0.00  0.00    -0.061 A 
ATOM      8  C   UNL A   1      63.624 -20.844  -3.925  0.00  0.00    -0.060 A 
ATOM      9  C   UNL A   1      63.748 -20.419  -5.251  0.00  0.00    -0.038 A 
ATOM     10  C   UNL A   1      63.538 -21.359  -6.275  0.00  0.00    +0.050 A 
ATOM     11  C   UNL A   1      62.722 -24.794  -7.498  0.00  0.00    -0.025 C 
ATOM     12  C   UNL A   1      62.286 -25.000  -8.960  0.00  0.00    -0.049 C 
ATOM     13  C   UNL A   1      63.204 -24.255  -9.944  0.00  0.00    -0.047 C 
ATOM     14  C   UNL A   1      63.203 -22.735  -9.701  0.00  0.00    -0.012 C 
ENDBRANCH   1   2
BRANCH   1  18
ATOM     15  N   UNL A   1      60.531 -18.163 -10.252  0.00  0.00    -0.349 N 
ATOM     16  C   UNL A   1      61.515 -18.699 -11.006  0.00  0.00    +0.005 A 
ATOM     17  C   UNL A   1      62.617 -19.307 -10.410  0.00  0.00    -0.041 A 
ATOM     18  C   UNL A   1      62.716 -19.365  -9.017  0.00  0.00    -0.025 A 
ATOM     19  C   UNL A   1      61.660 -18.840  -8.265  0.00  0.00    -0.041 A 
ATOM     20  C   UNL A   1      60.583 -18.234  -8.901  0.00  0.00    +0.005 A 
BRANCH  15  21
ATOM     21  C   UNL A   1      59.379 -17.488 -10.902  0.00  0.00    +0.048 C 
BRANCH  21  25
ATOM     22  C   UNL A   1      57.172 -20.242 -13.384  0.00  0.00    -0.062 A 
ATOM     23  C   UNL A   1      57.263 -20.456 -12.011  0.00  0.00    -0.061 A 
ATOM     24  C   UNL A   1      57.980 -19.567 -11.208  0.00  0.00    -0.057 A 
ATOM     25  C   UNL A   1      58.613 -18.449 -11.774  0.00  0.00    -0.028 A 
ATOM     26  C   UNL A   1      58.524 -18.250 -13.162  0.00  0.00    -0.057 A 
ATOM     27  C   UNL A   1      57.803 -19.141 -13.960  0.00  0.00    -0.061 A 
ENDBRANCH  21  25
ENDBRANCH  15  21
ENDBRANCH   1  18
TORSDOF 4
ENDMDL
MODEL 14
REMARK VINA RESULT:    -6.988     17.502     19.637
REMARK INTER + INTRA:          -9.461
REMARK INTER:                  -8.412
REMARK INTRA:                  -1.049
REMARK UNBOUND:                -0.839
REMARK  Name = cpd354.pdb
REMARK  4 active torsions:
REMARK  status: ('A' for Active; 'I' for Inactive)
REMARK    1  A    between atoms: C_4  and  C_5
REMARK    2  A    between atoms: C_5  and  N_6
REMARK    3  A    between atoms: C_9  and  C_10
REMARK    4  A    between atoms: C_10  and  N_11
REMARK                            x       y       z     vdW  Elec       q    Type
REMARK                         _______ _______ _______ _____ _____    ______ ____
ROOT
ATOM      1  C   UNL A   1      46.540 -20.471 -36.900  0.00  0.00    +0.049 C 
ENDROOT
BRANCH   1   2
ATOM      2  N   UNL A   1      46.598 -19.799 -38.195  0.00  0.00    -0.339 N 
ATOM      3  C   UNL A   1      46.840 -18.460 -38.385  0.00  0.00    +0.023 A 
ATOM      4  C   UNL A   1      46.839 -18.212 -39.744  0.00  0.00    -0.019 A 
ATOM      5  C   UNL A   1      46.587 -19.441 -40.408  0.00  0.00    +0.003 A 
ATOM      6  C   UNL A   1      46.474 -19.810 -41.764  0.00  0.00    -0.052 A 
ATOM      7  C   UNL A   1      46.203 -21.138 -42.100  0.00  0.00    -0.061 A 
ATOM      8  C   UNL A   1      46.046 -22.100 -41.107  0.00  0.00    -0.060 A 
ATOM      9  C   UNL A   1      46.158 -21.762 -39.755  0.00  0.00    -0.038 A 
ATOM     10  C   UNL A   1      46.429 -20.423 -39.422  0.00  0.00    +0.050 A 
ATOM     11  C   UNL A   1      47.083 -16.856 -40.321  0.00  0.00    -0.025 C 
ATOM     12  C   UNL A   1      46.927 -15.759 -39.252  0.00  0.00    -0.049 C 
ATOM     13  C   UNL A   1      47.614 -16.141 -37.931  0.00  0.00    -0.047 C 
ATOM     14  C   UNL A   1      47.025 -17.427 -37.322  0.00  0.00    -0.012 C 
ENDBRANCH   1   2
BRANCH   1  18
ATOM     15  N   UNL A   1      42.889 -19.733 -34.748  0.00  0.00    -0.349 N 
ATOM     16  C   UNL A   1      44.077 -19.701 -34.104  0.00  0.00    +0.005 A 
ATOM     17  C   UNL A   1      45.265 -19.932 -34.791  0.00  0.00    -0.041 A 
ATOM     18  C   UNL A   1      45.240 -20.205 -36.162  0.00  0.00    -0.025 A 
ATOM     19  C   UNL A   1      43.999 -20.187 -36.808  0.00  0.00    -0.041 A 
ATOM     20  C   UNL A   1      42.836 -19.961 -36.081  0.00  0.00    +0.005 A 
BRANCH  15  21
ATOM     21  C   UNL A   1      41.628 -19.518 -33.994  0.00  0.00    +0.048 C 
BRANCH  21  25
ATOM     22  C   UNL A   1      39.193 -23.079 -34.014  0.00  0.00    -0.062 A 
ATOM     23  C   UNL A   1      38.805 -21.962 -34.749  0.00  0.00    -0.061 A 
ATOM     24  C   UNL A   1      39.591 -20.808 -34.740  0.00  0.00    -0.057 A 
ATOM     25  C   UNL A   1      40.780 -20.763 -33.994  0.00  0.00    -0.028 A 
ATOM     26  C   UNL A   1      41.154 -21.893 -33.248  0.00  0.00    -0.057 A 
ATOM     27  C   UNL A   1      40.366 -23.045 -33.262  0.00  0.00    -0.061 A 
ENDBRANCH  21  25
ENDBRANCH  15  21
ENDBRANCH   1  18
TORSDOF 4
ENDMDL
MODEL 15
REMARK VINA RESULT:    -6.847     17.842     19.892
REMARK INTER + INTRA:          -9.287
REMARK INTER:                  -8.220
REMARK INTRA:                  -1.067
REMARK UNBOUND:                -0.839
REMARK  Name = cpd354.pdb
REMARK  4 active torsions:
REMARK  status: ('A' for Active; 'I' for Inactive)
REMARK    1  A    between atoms: C_4  and  C_5
REMARK    2  A    between atoms: C_5  and  N_6
REMARK    3  A    between atoms: C_9  and  C_10
REMARK    4  A    between atoms: C_10  and  N_11
REMARK                            x       y       z     vdW  Elec       q    Type
REMARK                         _______ _______ _______ _____ _____    ______ ____
ROOT
ATOM      1  C   UNL A   1      45.936 -20.265 -37.303  0.00  0.00    +0.049 C 
ENDROOT
BRANCH   1   2
ATOM      2  N   UNL A   1      45.769 -19.495 -38.533  0.00  0.00    -0.339 N 
ATOM      3  C   UNL A   1      45.063 -19.907 -39.637  0.00  0.00    +0.023 A 
ATOM      4  C   UNL A   1      45.115 -18.899 -40.581  0.00  0.00    -0.019 A 
ATOM      5  C   UNL A   1      45.881 -17.835 -40.035  0.00  0.00    +0.003 A 
ATOM      6  C   UNL A   1      46.268 -16.568 -40.516  0.00  0.00    -0.052 A 
ATOM      7  C   UNL A   1      47.053 -15.733 -39.716  0.00  0.00    -0.061 A 
ATOM      8  C   UNL A   1      47.452 -16.143 -38.448  0.00  0.00    -0.060 A 
ATOM      9  C   UNL A   1      47.078 -17.393 -37.945  0.00  0.00    -0.038 A 
ATOM     10  C   UNL A   1      46.289 -18.230 -38.755  0.00  0.00    +0.050 A 
ATOM     11  C   UNL A   1      44.443 -18.998 -41.910  0.00  0.00    -0.025 C 
ATOM     12  C   UNL A   1      44.060 -20.453 -42.236  0.00  0.00    -0.049 C 
ATOM     13  C   UNL A   1      43.431 -21.165 -41.028  0.00  0.00    -0.047 C 
ATOM     14  C   UNL A   1      44.392 -21.228 -39.826  0.00  0.00    -0.012 C 
ENDBRANCH   1   2
BRANCH   1  18
ATOM     15  N   UNL A   1      43.398 -18.945 -34.092  0.00  0.00    -0.349 N 
ATOM     16  C   UNL A   1      44.693 -19.249 -33.854  0.00  0.00    +0.005 A 
ATOM     17  C   UNL A   1      45.525 -19.671 -34.887  0.00  0.00    -0.041 A 
ATOM     18  C   UNL A   1      45.025 -19.789 -36.187  0.00  0.00    -0.025 A 
ATOM     19  C   UNL A   1      43.693 -19.424 -36.408  0.00  0.00    -0.041 A 
ATOM     20  C   UNL A   1      42.894 -19.016 -35.346  0.00  0.00    +0.005 A 
BRANCH  15  21
ATOM     21  C   UNL A   1      42.514 -18.528 -32.974  0.00  0.00    +0.048 C 
BRANCH  21  25
ATOM     22  C   UNL A   1      39.244 -21.297 -32.474  0.00  0.00    -0.062 A 
ATOM     23  C   UNL A   1      40.557 -21.760 -32.488  0.00  0.00    -0.061 A 
ATOM     24  C   UNL A   1      41.616 -20.865 -32.654  0.00  0.00    -0.057 A 
ATOM     25  C   UNL A   1      41.368 -19.491 -32.803  0.00  0.00    -0.028 A 
ATOM     26  C   UNL A   1      40.039 -19.038 -32.799  0.00  0.00    -0.057 A 
ATOM     27  C   UNL A   1      38.984 -19.937 -32.631  0.00  0.00    -0.061 A 
ENDBRANCH  21  25
ENDBRANCH  15  21
ENDBRANCH   1  18
TORSDOF 4
ENDMDL
MODEL 16
REMARK VINA RESULT:    -6.794     16.752     18.963
REMARK INTER + INTRA:          -9.222
REMARK INTER:                  -8.257
REMARK INTRA:                  -0.964
REMARK UNBOUND:                -0.839
REMARK  Name = cpd354.pdb
REMARK  4 active torsions:
REMARK  status: ('A' for Active; 'I' for Inactive)
REMARK    1  A    between atoms: C_4  and  C_5
REMARK    2  A    between atoms: C_5  and  N_6
REMARK    3  A    between atoms: C_9  and  C_10
REMARK    4  A    between atoms: C_10  and  N_11
REMARK                            x       y       z     vdW  Elec       q    Type
REMARK                         _______ _______ _______ _____ _____    ______ ____
ROOT
ATOM      1  C   UNL A   1      44.366 -19.057 -37.061  0.00  0.00    +0.049 C 
ENDROOT
BRANCH   1   2
ATOM      2  N   UNL A   1      44.645 -18.996 -38.494  0.00  0.00    -0.339 N 
ATOM      3  C   UNL A   1      45.460 -19.861 -39.182  0.00  0.00    +0.023 A 
ATOM      4  C   UNL A   1      45.452 -19.494 -40.513  0.00  0.00    -0.019 A 
ATOM      5  C   UNL A   1      44.603 -18.363 -40.644  0.00  0.00    +0.003 A 
ATOM      6  C   UNL A   1      44.207 -17.564 -41.736  0.00  0.00    -0.052 A 
ATOM      7  C   UNL A   1      43.343 -16.486 -41.528  0.00  0.00    -0.061 A 
ATOM      8  C   UNL A   1      42.869 -16.198 -40.253  0.00  0.00    -0.060 A 
ATOM      9  C   UNL A   1      43.242 -16.977 -39.153  0.00  0.00    -0.038 A 
ATOM     10  C   UNL A   1      44.113 -18.060 -39.367  0.00  0.00    +0.050 A 
ATOM     11  C   UNL A   1      46.223 -20.226 -41.561  0.00  0.00    -0.025 C 
ATOM     12  C   UNL A   1      47.296 -21.133 -40.933  0.00  0.00    -0.049 C 
ATOM     13  C   UNL A   1      46.753 -21.914 -39.725  0.00  0.00    -0.047 C 
ATOM     14  C   UNL A   1      46.263 -20.980 -38.603  0.00  0.00    -0.012 C 
ENDBRANCH   1   2
BRANCH   1  18
ATOM     15  N   UNL A   1      41.121 -21.694 -36.056  0.00  0.00    -0.349 N 
ATOM     16  C   UNL A   1      41.820 -21.072 -35.080  0.00  0.00    +0.005 A 
ATOM     17  C   UNL A   1      42.868 -20.212 -35.394  0.00  0.00    -0.041 A 
ATOM     18  C   UNL A   1      43.211 -19.985 -36.730  0.00  0.00    -0.025 A 
ATOM     19  C   UNL A   1      42.441 -20.607 -37.717  0.00  0.00    -0.041 A 
ATOM     20  C   UNL A   1      41.408 -21.467 -37.359  0.00  0.00    +0.005 A 
BRANCH  15  21
ATOM     21  C   UNL A   1      40.027 -22.635 -35.704  0.00  0.00    +0.048 C 
BRANCH  21  25
ATOM     22  C   UNL A   1      36.918 -20.631 -33.485  0.00  0.00    -0.062 A 
ATOM     23  C   UNL A   1      37.302 -20.156 -34.736  0.00  0.00    -0.061 A 
ATOM     24  C   UNL A   1      38.310 -20.802 -35.453  0.00  0.00    -0.057 A 
ATOM     25  C   UNL A   1      38.944 -21.936 -34.923  0.00  0.00    -0.028 A 
ATOM     26  C   UNL A   1      38.556 -22.399 -33.655  0.00  0.00    -0.057 A 
ATOM     27  C   UNL A   1      37.545 -21.750 -32.943  0.00  0.00    -0.061 A 
ENDBRANCH  21  25
ENDBRANCH  15  21
ENDBRANCH   1  18
TORSDOF 4
ENDMDL
MODEL 17
REMARK VINA RESULT:    -6.777     15.484     18.678
REMARK INTER + INTRA:          -9.200
REMARK INTER:                  -8.198
REMARK INTRA:                  -1.003
REMARK UNBOUND:                -0.839
REMARK  Name = cpd354.pdb
REMARK  4 active torsions:
REMARK  status: ('A' for Active; 'I' for Inactive)
REMARK    1  A    between atoms: C_4  and  C_5
REMARK    2  A    between atoms: C_5  and  N_6
REMARK    3  A    between atoms: C_9  and  C_10
REMARK    4  A    between atoms: C_10  and  N_11
REMARK                            x       y       z     vdW  Elec       q    Type
REMARK                         _______ _______ _______ _____ _____    ______ ____
ROOT
ATOM      1  C   UNL A   1      42.581 -20.452 -33.660  0.00  0.00    +0.049 C 
ENDROOT
BRANCH   1   2
ATOM      2  N   UNL A   1      41.182 -20.182 -33.341  0.00  0.00    -0.339 N 
ATOM      3  C   UNL A   1      40.676 -18.966 -32.954  0.00  0.00    +0.023 A 
ATOM      4  C   UNL A   1      39.314 -19.106 -32.767  0.00  0.00    -0.019 A 
ATOM      5  C   UNL A   1      38.976 -20.456 -33.047  0.00  0.00    +0.003 A 
ATOM      6  C   UNL A   1      37.767 -21.180 -33.031  0.00  0.00    -0.052 A 
ATOM      7  C   UNL A   1      37.769 -22.539 -33.357  0.00  0.00    -0.061 A 
ATOM      8  C   UNL A   1      38.955 -23.180 -33.699  0.00  0.00    -0.060 A 
ATOM      9  C   UNL A   1      40.167 -22.485 -33.727  0.00  0.00    -0.038 A 
ATOM     10  C   UNL A   1      40.160 -21.118 -33.396  0.00  0.00    +0.050 A 
ATOM     11  C   UNL A   1      38.432 -17.974 -32.352  0.00  0.00    -0.025 C 
ATOM     12  C   UNL A   1      39.255 -16.803 -31.788  0.00  0.00    -0.049 C 
ATOM     13  C   UNL A   1      40.495 -16.505 -32.647  0.00  0.00    -0.047 C 
ATOM     14  C   UNL A   1      41.451 -17.710 -32.723  0.00  0.00    -0.012 C 
ENDBRANCH   1   2
BRANCH   1  18
ATOM     15  N   UNL A   1      43.520 -19.676 -37.785  0.00  0.00    -0.349 N 
ATOM     16  C   UNL A   1      44.052 -18.906 -36.809  0.00  0.00    +0.005 A 
ATOM     17  C   UNL A   1      43.760 -19.152 -35.471  0.00  0.00    -0.041 A 
ATOM     18  C   UNL A   1      42.906 -20.202 -35.122  0.00  0.00    -0.025 A 
ATOM     19  C   UNL A   1      42.407 -21.007 -36.150  0.00  0.00    -0.041 A 
ATOM     20  C   UNL A   1      42.717 -20.720 -37.475  0.00  0.00    +0.005 A 
BRANCH  15  21
ATOM     21  C   UNL A   1      43.814 -19.379 -39.210  0.00  0.00    +0.048 C 
BRANCH  21  25
ATOM     22  C   UNL A   1      46.355 -22.422 -40.911  0.00  0.00    -0.062 A 
ATOM     23  C   UNL A   1      46.666 -21.861 -39.675  0.00  0.00    -0.061 A 
ATOM     24  C   UNL A   1      45.846 -20.874 -39.126  0.00  0.00    -0.057 A 
ATOM     25  C   UNL A   1      44.700 -20.439 -39.810  0.00  0.00    -0.028 A 
ATOM     26  C   UNL A   1      44.404 -21.004 -41.062  0.00  0.00    -0.057 A 
ATOM     27  C   UNL A   1      45.226 -21.992 -41.606  0.00  0.00    -0.061 A 
ENDBRANCH  21  25
ENDBRANCH  15  21
ENDBRANCH   1  18
TORSDOF 4
ENDMDL
MODEL 18
REMARK VINA RESULT:    -6.691     17.092     19.924
REMARK INTER + INTRA:          -9.094
REMARK INTER:                  -8.088
REMARK INTRA:                  -1.006
REMARK UNBOUND:                -0.839
REMARK  Name = cpd354.pdb
REMARK  4 active torsions:
REMARK  status: ('A' for Active; 'I' for Inactive)
REMARK    1  A    between atoms: C_4  and  C_5
REMARK    2  A    between atoms: C_5  and  N_6
REMARK    3  A    between atoms: C_9  and  C_10
REMARK    4  A    between atoms: C_10  and  N_11
REMARK                            x       y       z     vdW  Elec       q    Type
REMARK                         _______ _______ _______ _____ _____    ______ ____
ROOT
ATOM      1  C   UNL A   1      44.515 -20.123 -34.205  0.00  0.00    +0.049 C 
ENDROOT
BRANCH   1   2
ATOM      2  N   UNL A   1      43.363 -19.394 -33.680  0.00  0.00    -0.339 N 
ATOM      3  C   UNL A   1      42.182 -19.963 -33.271  0.00  0.00    +0.023 A 
ATOM      4  C   UNL A   1      41.353 -18.955 -32.819  0.00  0.00    -0.019 A 
ATOM      5  C   UNL A   1      42.050 -17.726 -32.959  0.00  0.00    +0.003 A 
ATOM      6  C   UNL A   1      41.727 -16.384 -32.671  0.00  0.00    -0.052 A 
ATOM      7  C   UNL A   1      42.654 -15.375 -32.940  0.00  0.00    -0.061 A 
ATOM      8  C   UNL A   1      43.895 -15.685 -33.489  0.00  0.00    -0.060 A 
ATOM      9  C   UNL A   1      44.243 -17.007 -33.780  0.00  0.00    -0.038 A 
ATOM     10  C   UNL A   1      43.305 -18.019 -33.508  0.00  0.00    +0.050 A 
ATOM     11  C   UNL A   1      39.982 -19.211 -32.285  0.00  0.00    -0.025 C 
ATOM     12  C   UNL A   1      39.486 -20.615 -32.671  0.00  0.00    -0.049 C 
ATOM     13  C   UNL A   1      40.574 -21.684 -32.474  0.00  0.00    -0.047 C 
ATOM     14  C   UNL A   1      41.818 -21.410 -33.339  0.00  0.00    -0.012 C 
ENDBRANCH   1   2
BRANCH   1  18
ATOM     15  N   UNL A   1      45.235 -19.293 -38.363  0.00  0.00    -0.349 N 
ATOM     16  C   UNL A   1      44.076 -19.871 -37.975  0.00  0.00    +0.005 A 
ATOM     17  C   UNL A   1      43.830 -20.139 -36.632  0.00  0.00    -0.041 A 
ATOM     18  C   UNL A   1      44.786 -19.813 -35.666  0.00  0.00    -0.025 A 
ATOM     19  C   UNL A   1      45.955 -19.175 -36.094  0.00  0.00    -0.041 A 
ATOM     20  C   UNL A   1      46.165 -18.935 -37.447  0.00  0.00    +0.005 A 
BRANCH  15  21
ATOM     21  C   UNL A   1      45.496 -19.045 -39.803  0.00  0.00    +0.048 C 
BRANCH  21  25
ATOM     22  C   UNL A   1      46.316 -22.742 -41.869  0.00  0.00    -0.062 A 
ATOM     23  C   UNL A   1      47.136 -22.329 -40.822  0.00  0.00    -0.061 A 
ATOM     24  C   UNL A   1      46.873 -21.130 -40.156  0.00  0.00    -0.057 A 
ATOM     25  C   UNL A   1      45.780 -20.333 -40.530  0.00  0.00    -0.028 A 
ATOM     26  C   UNL A   1      44.968 -20.755 -41.595  0.00  0.00    -0.057 A 
ATOM     27  C   UNL A   1      45.234 -21.955 -42.257  0.00  0.00    -0.061 A 
ENDBRANCH  21  25
ENDBRANCH  15  21
ENDBRANCH   1  18
TORSDOF 4
ENDMDL
MODEL 19
REMARK VINA RESULT:    -6.677     15.923     19.051
REMARK INTER + INTRA:          -9.078
REMARK INTER:                  -8.024
REMARK INTRA:                  -1.054
REMARK UNBOUND:                -0.839
REMARK  Name = cpd354.pdb
REMARK  4 active torsions:
REMARK  status: ('A' for Active; 'I' for Inactive)
REMARK    1  A    between atoms: C_4  and  C_5
REMARK    2  A    between atoms: C_5  and  N_6
REMARK    3  A    between atoms: C_9  and  C_10
REMARK    4  A    between atoms: C_10  and  N_11
REMARK                            x       y       z     vdW  Elec       q    Type
REMARK                         _______ _______ _______ _____ _____    ______ ____
ROOT
ATOM      1  C   UNL A   1      40.322 -19.534 -37.631  0.00  0.00    +0.049 C 
ENDROOT
BRANCH   1   2
ATOM      2  N   UNL A   1      40.222 -19.945 -36.233  0.00  0.00    -0.339 N 
ATOM      3  C   UNL A   1      40.542 -19.164 -35.150  0.00  0.00    +0.023 A 
ATOM      4  C   UNL A   1      40.293 -19.893 -34.004  0.00  0.00    -0.019 A 
ATOM      5  C   UNL A   1      39.804 -21.166 -34.400  0.00  0.00    +0.003 A 
ATOM      6  C   UNL A   1      39.386 -22.311 -33.692  0.00  0.00    -0.052 A 
ATOM      7  C   UNL A   1      38.956 -23.440 -34.393  0.00  0.00    -0.061 A 
ATOM      8  C   UNL A   1      38.936 -23.442 -35.784  0.00  0.00    -0.060 A 
ATOM      9  C   UNL A   1      39.341 -22.318 -36.511  0.00  0.00    -0.038 A 
ATOM     10  C   UNL A   1      39.775 -21.184 -35.800  0.00  0.00    +0.050 A 
ATOM     11  C   UNL A   1      40.518 -19.349 -32.632  0.00  0.00    -0.025 C 
ATOM     12  C   UNL A   1      41.408 -18.094 -32.668  0.00  0.00    -0.049 C 
ATOM     13  C   UNL A   1      40.998 -17.130 -33.793  0.00  0.00    -0.047 C 
ATOM     14  C   UNL A   1      41.109 -17.782 -35.184  0.00  0.00    -0.012 C 
ENDBRANCH   1   2
BRANCH   1  18
ATOM     15  N   UNL A   1      44.363 -19.780 -39.083  0.00  0.00    -0.349 N 
ATOM     16  C   UNL A   1      43.785 -20.850 -38.495  0.00  0.00    +0.005 A 
ATOM     17  C   UNL A   1      42.476 -20.784 -38.026  0.00  0.00    -0.041 A 
ATOM     18  C   UNL A   1      41.744 -19.601 -38.159  0.00  0.00    -0.025 A 
ATOM     19  C   UNL A   1      42.354 -18.526 -38.812  0.00  0.00    -0.041 A 
ATOM     20  C   UNL A   1      43.667 -18.631 -39.256  0.00  0.00    +0.005 A 
BRANCH  15  21
ATOM     21  C   UNL A   1      45.771 -19.856 -39.547  0.00  0.00    +0.048 C 
BRANCH  21  25
ATOM     22  C   UNL A   1      46.291 -23.059 -42.389  0.00  0.00    -0.062 A 
ATOM     23  C   UNL A   1      46.980 -23.079 -41.179  0.00  0.00    -0.061 A 
ATOM     24  C   UNL A   1      46.814 -22.041 -40.260  0.00  0.00    -0.057 A 
ATOM     25  C   UNL A   1      45.952 -20.970 -40.544  0.00  0.00    -0.028 A 
ATOM     26  C   UNL A   1      45.272 -20.956 -41.773  0.00  0.00    -0.057 A 
ATOM     27  C   UNL A   1      45.439 -21.998 -42.688  0.00  0.00    -0.061 A 
ENDBRANCH  21  25
ENDBRANCH  15  21
ENDBRANCH   1  18
TORSDOF 4
ENDMDL
MODEL 20
REMARK VINA RESULT:    -6.579     16.950     19.797
REMARK INTER + INTRA:          -8.956
REMARK INTER:                  -7.890
REMARK INTRA:                  -1.066
REMARK UNBOUND:                -0.839
REMARK  Name = cpd354.pdb
REMARK  4 active torsions:
REMARK  status: ('A' for Active; 'I' for Inactive)
REMARK    1  A    between atoms: C_4  and  C_5
REMARK    2  A    between atoms: C_5  and  N_6
REMARK    3  A    between atoms: C_9  and  C_10
REMARK    4  A    between atoms: C_10  and  N_11
REMARK                            x       y       z     vdW  Elec       q    Type
REMARK                         _______ _______ _______ _____ _____    ______ ____
ROOT
ATOM      1  C   UNL A   1      42.300 -17.979 -36.859  0.00  0.00    +0.049 C 
ENDROOT
BRANCH   1   2
ATOM      2  N   UNL A   1      41.623 -19.211 -36.464  0.00  0.00    -0.339 N 
ATOM      3  C   UNL A   1      41.592 -19.727 -35.192  0.00  0.00    +0.023 A 
ATOM      4  C   UNL A   1      40.838 -20.884 -35.215  0.00  0.00    -0.019 A 
ATOM      5  C   UNL A   1      40.394 -21.085 -36.549  0.00  0.00    +0.003 A 
ATOM      6  C   UNL A   1      39.606 -22.072 -37.175  0.00  0.00    -0.052 A 
ATOM      7  C   UNL A   1      39.351 -21.987 -38.546  0.00  0.00    -0.061 A 
ATOM      8  C   UNL A   1      39.867 -20.936 -39.296  0.00  0.00    -0.060 A 
ATOM      9  C   UNL A   1      40.648 -19.941 -38.700  0.00  0.00    -0.038 A 
ATOM     10  C   UNL A   1      40.903 -20.032 -37.320  0.00  0.00    +0.050 A 
ATOM     11  C   UNL A   1      40.579 -21.708 -33.997  0.00  0.00    -0.025 C 
ATOM     12  C   UNL A   1      41.554 -21.348 -32.862  0.00  0.00    -0.049 C 
ATOM     13  C   UNL A   1      41.723 -19.827 -32.711  0.00  0.00    -0.047 C 
ATOM     14  C   UNL A   1      42.284 -19.176 -33.988  0.00  0.00    -0.012 C 
ENDBRANCH   1   2
BRANCH   1  18
ATOM     15  N   UNL A   1      45.389 -18.670 -39.771  0.00  0.00    -0.349 N 
ATOM     16  C   UNL A   1      45.371 -19.375 -38.618  0.00  0.00    +0.005 A 
ATOM     17  C   UNL A   1      44.373 -19.164 -37.671  0.00  0.00    -0.041 A 
ATOM     18  C   UNL A   1      43.376 -18.213 -37.905  0.00  0.00    -0.025 A 
ATOM     19  C   UNL A   1      43.396 -17.532 -39.126  0.00  0.00    -0.041 A 
ATOM     20  C   UNL A   1      44.418 -17.767 -40.040  0.00  0.00    +0.005 A 
BRANCH  15  21
ATOM     21  C   UNL A   1      46.480 -18.883 -40.756  0.00  0.00    +0.048 C 
BRANCH  21  25
ATOM     22  C   UNL A   1      46.210 -22.803 -42.536  0.00  0.00    -0.062 A 
ATOM     23  C   UNL A   1      47.313 -22.463 -41.759  0.00  0.00    -0.061 A 
ATOM     24  C   UNL A   1      47.403 -21.193 -41.185  0.00  0.00    -0.057 A 
ATOM     25  C   UNL A   1      46.382 -20.250 -41.383  0.00  0.00    -0.028 A 
ATOM     26  C   UNL A   1      45.280 -20.601 -42.179  0.00  0.00    -0.057 A 
ATOM     27  C   UNL A   1      45.194 -21.873 -42.748  0.00  0.00    -0.061 A 
ENDBRANCH  21  25
ENDBRANCH  15  21
ENDBRANCH   1  18
TORSDOF 4
ENDMDL
