REMARK  Name = cpd256.pdb
REMARK  5 active torsions:
REMARK  status: ('A' for Active; 'I' for Inactive)
REMARK    1  A    between atoms: C_4  and  C_5
REMARK    2  A    between atoms: C_5  and  N_6
REMARK    3  A    between atoms: C_9  and  N_10
REMARK    4  A    between atoms: N_10  and  C_11
REMARK    5  A    between atoms: C_14  and  C_15
REMARK                            x       y       z     vdW  Elec       q    Type
REMARK                         _______ _______ _______ _____ _____    ______ ____
ROOT
ATOM      1  N   UNL     1      -0.775   3.124  -0.113  0.00  0.00    -0.298 N 
ATOM      2  C   UNL     1      -1.777   2.608   0.838  0.00  0.00    +0.001 C 
ATOM      3  C   UNL     1      -3.041   3.471   0.925  0.00  0.00    -0.022 C 
ATOM      4  C   UNL     1      -3.307   4.178  -0.405  0.00  0.00    +0.024 C 
ATOM      5  C   UNL     1      -2.112   5.078  -0.767  0.00  0.00    -0.022 C 
ATOM      6  C   UNL     1      -0.792   4.585  -0.166  0.00  0.00    +0.001 C 
ATOM      7  H   UNL     1      -1.031   2.779  -1.038  0.00  0.00    +0.000 HD
ENDROOT
BRANCH   4   8
ATOM      8  N   UNL     1      -4.517   5.011  -0.339  0.00  0.00    -0.325 N 
ATOM      9  H   UNL     1      -4.469   5.994  -0.322  0.00  0.00    +0.000 HD
BRANCH   8  10
ATOM     10  C   UNL     1      -5.737   4.333  -0.302  0.00  0.00    +0.141 A 
ATOM     11  C   UNL     1      -6.118   3.430  -1.279  0.00  0.00    -0.018 A 
ATOM     12  C   UNL     1      -7.354   2.789  -1.182  0.00  0.00    -0.031 A 
ATOM     13  C   UNL     1      -8.185   3.069  -0.106  0.00  0.00    +0.093 A 
ATOM     14  N   UNL     1      -7.794   3.971   0.821  0.00  0.00    -0.147 NA
ATOM     15  N   UNL     1      -6.571   4.608   0.716  0.00  0.00    -0.134 NA
BRANCH  13  16
ATOM     16  C   UNL     1      -9.508   2.446   0.097  0.00  0.00    +0.002 A 
ATOM     17  C   UNL     1      -9.803   1.147  -0.360  0.00  0.00    -0.053 A 
ATOM     18  C   UNL     1     -11.063   0.573  -0.161  0.00  0.00    -0.061 A 
ATOM     19  C   UNL     1     -12.058   1.283   0.502  0.00  0.00    -0.062 A 
ATOM     20  C   UNL     1     -11.793   2.566   0.972  0.00  0.00    -0.061 A 
ATOM     21  C   UNL     1     -10.532   3.137   0.773  0.00  0.00    -0.053 A 
ENDBRANCH  13  16
ENDBRANCH   8  10
ENDBRANCH   4   8
BRANCH   1  22
ATOM     22  C   UNL     1       0.574   2.613   0.185  0.00  0.00    +0.024 C 
BRANCH  22  26
ATOM     23  C   UNL     1       0.929  -1.667  -0.287  0.00  0.00    -0.062 A 
ATOM     24  C   UNL     1       0.582  -0.871  -1.377  0.00  0.00    -0.061 A 
ATOM     25  C   UNL     1       0.466   0.511  -1.224  0.00  0.00    -0.057 A 
ATOM     26  C   UNL     1       0.695   1.112   0.023  0.00  0.00    -0.033 A 
ATOM     27  C   UNL     1       1.045   0.301   1.112  0.00  0.00    -0.057 A 
ATOM     28  C   UNL     1       1.160  -1.082   0.956  0.00  0.00    -0.061 A 
ENDBRANCH  22  26
ENDBRANCH   1  22
TORSDOF 5
