MODEL 1
REMARK VINA RESULT:    -7.972      0.000      0.000
REMARK INTER + INTRA:         -11.089
REMARK INTER:                 -10.302
REMARK INTRA:                  -0.787
REMARK UNBOUND:                -0.787
REMARK  Name = cpd256.pdb
REMARK  5 active torsions:
REMARK  status: ('A' for Active; 'I' for Inactive)
REMARK    1  A    between atoms: C_4  and  C_5
REMARK    2  A    between atoms: C_5  and  N_6
REMARK    3  A    between atoms: C_9  and  N_10
REMARK    4  A    between atoms: N_10  and  C_11
REMARK    5  A    between atoms: C_14  and  C_15
REMARK                            x       y       z     vdW  Elec       q    Type
REMARK                         _______ _______ _______ _____ _____    ______ ____
ROOT
ATOM      1  N   UNL     1      33.511 -38.942 -24.586  0.00  0.00    -0.298 N 
ATOM      2  C   UNL     1      33.518 -39.741 -25.826  0.00  0.00    +0.001 C 
ATOM      3  C   UNL     1      33.738 -38.906 -27.092  0.00  0.00    -0.022 C 
ATOM      4  C   UNL     1      34.584 -37.669 -26.785  0.00  0.00    +0.024 C 
ATOM      5  C   UNL     1      33.875 -36.800 -25.731  0.00  0.00    -0.022 C 
ATOM      6  C   UNL     1      32.954 -37.610 -24.813  0.00  0.00    +0.001 C 
ATOM      7  H   UNL     1      34.483 -38.826 -24.297  0.00  0.00    +0.000 HD
ENDROOT
BRANCH   4   8
ATOM      8  N   UNL     1      34.805 -36.855 -27.990  0.00  0.00    -0.325 N 
ATOM      9  H   UNL     1      34.097 -36.283 -28.366  0.00  0.00    +0.000 HD
BRANCH   8  10
ATOM     10  C   UNL     1      36.071 -36.938 -28.572  0.00  0.00    +0.141 A 
ATOM     11  C   UNL     1      37.059 -37.779 -28.091  0.00  0.00    -0.018 A 
ATOM     12  C   UNL     1      38.305 -37.809 -28.719  0.00  0.00    -0.031 A 
ATOM     13  C   UNL     1      38.536 -36.992 -29.817  0.00  0.00    +0.093 A 
ATOM     14  N   UNL     1      37.558 -36.166 -30.250  0.00  0.00    -0.147 NA
ATOM     15  N   UNL     1      36.328 -36.136 -29.620  0.00  0.00    -0.134 NA
BRANCH  13  16
ATOM     16  C   UNL     1      39.812 -36.948 -30.558  0.00  0.00    +0.002 A 
ATOM     17  C   UNL     1      39.967 -36.201 -31.741  0.00  0.00    -0.053 A 
ATOM     18  C   UNL     1      41.183 -36.173 -32.432  0.00  0.00    -0.061 A 
ATOM     19  C   UNL     1      42.275 -36.889 -31.954  0.00  0.00    -0.062 A 
ATOM     20  C   UNL     1      42.155 -37.630 -30.782  0.00  0.00    -0.061 A 
ATOM     21  C   UNL     1      40.938 -37.656 -30.093  0.00  0.00    -0.053 A 
ENDBRANCH  13  16
ENDBRANCH   8  10
ENDBRANCH   4   8
BRANCH   1  22
ATOM     22  C   UNL     1      32.812 -39.638 -23.493  0.00  0.00    +0.024 C 
BRANCH  22  26
ATOM     23  C   UNL     1      35.229 -40.079 -19.939  0.00  0.00    -0.062 A 
ATOM     24  C   UNL     1      35.121 -41.133 -20.844  0.00  0.00    -0.061 A 
ATOM     25  C   UNL     1      34.339 -40.991 -21.991  0.00  0.00    -0.057 A 
ATOM     26  C   UNL     1      33.655 -39.792 -22.244  0.00  0.00    -0.033 A 
ATOM     27  C   UNL     1      33.774 -38.738 -21.327  0.00  0.00    -0.057 A 
ATOM     28  C   UNL     1      34.557 -38.883 -20.180  0.00  0.00    -0.061 A 
ENDBRANCH  22  26
ENDBRANCH   1  22
TORSDOF 5
ENDMDL
MODEL 2
REMARK VINA RESULT:    -7.744      5.509      8.071
REMARK INTER + INTRA:         -10.794
REMARK INTER:                 -10.592
REMARK INTRA:                  -0.202
REMARK UNBOUND:                -0.787
REMARK  Name = cpd256.pdb
REMARK  5 active torsions:
REMARK  status: ('A' for Active; 'I' for Inactive)
REMARK    1  A    between atoms: C_4  and  C_5
REMARK    2  A    between atoms: C_5  and  N_6
REMARK    3  A    between atoms: C_9  and  N_10
REMARK    4  A    between atoms: N_10  and  C_11
REMARK    5  A    between atoms: C_14  and  C_15
REMARK                            x       y       z     vdW  Elec       q    Type
REMARK                         _______ _______ _______ _____ _____    ______ ____
ROOT
ATOM      1  N   UNL     1      33.082 -32.649 -30.308  0.00  0.00    -0.298 N 
ATOM      2  C   UNL     1      34.501 -32.655 -30.708  0.00  0.00    +0.001 C 
ATOM      3  C   UNL     1      35.275 -33.879 -30.207  0.00  0.00    -0.022 C 
ATOM      4  C   UNL     1      34.348 -35.089 -30.073  0.00  0.00    +0.024 C 
ATOM      5  C   UNL     1      33.216 -34.772 -29.079  0.00  0.00    -0.022 C 
ATOM      6  C   UNL     1      32.893 -33.277 -29.001  0.00  0.00    +0.001 C 
ATOM      7  H   UNL     1      32.572 -33.207 -30.994  0.00  0.00    +0.000 HD
ENDROOT
BRANCH   4   8
ATOM      8  N   UNL     1      35.074 -36.273 -29.593  0.00  0.00    -0.325 N 
ATOM      9  H   UNL     1      34.642 -36.952 -29.027  0.00  0.00    +0.000 HD
BRANCH   8  10
ATOM     10  C   UNL     1      36.410 -36.383 -29.983  0.00  0.00    +0.141 A 
ATOM     11  C   UNL     1      36.842 -36.073 -31.260  0.00  0.00    -0.018 A 
ATOM     12  C   UNL     1      38.193 -36.209 -31.584  0.00  0.00    -0.031 A 
ATOM     13  C   UNL     1      39.084 -36.655 -30.619  0.00  0.00    +0.093 A 
ATOM     14  N   UNL     1      38.629 -36.970 -29.386  0.00  0.00    -0.147 NA
ATOM     15  N   UNL     1      37.289 -36.840 -29.073  0.00  0.00    -0.134 NA
BRANCH  13  16
ATOM     16  C   UNL     1      40.532 -36.830 -30.852  0.00  0.00    +0.002 A 
ATOM     17  C   UNL     1      41.216 -38.002 -30.477  0.00  0.00    -0.053 A 
ATOM     18  C   UNL     1      42.588 -38.150 -30.703  0.00  0.00    -0.061 A 
ATOM     19  C   UNL     1      43.310 -37.129 -31.312  0.00  0.00    -0.062 A 
ATOM     20  C   UNL     1      42.660 -35.962 -31.701  0.00  0.00    -0.061 A 
ATOM     21  C   UNL     1      41.287 -35.817 -31.475  0.00  0.00    -0.053 A 
ENDBRANCH  13  16
ENDBRANCH   8  10
ENDBRANCH   4   8
BRANCH   1  22
ATOM     22  C   UNL     1      32.511 -31.292 -30.340  0.00  0.00    +0.024 C 
BRANCH  22  26
ATOM     23  C   UNL     1      28.563 -31.150 -32.089  0.00  0.00    -0.062 A 
ATOM     24  C   UNL     1      29.382 -32.257 -32.304  0.00  0.00    -0.061 A 
ATOM     25  C   UNL     1      30.658 -32.302 -31.741  0.00  0.00    -0.057 A 
ATOM     26  C   UNL     1      31.128 -31.238 -30.955  0.00  0.00    -0.033 A 
ATOM     27  C   UNL     1      30.294 -30.131 -30.744  0.00  0.00    -0.057 A 
ATOM     28  C   UNL     1      29.018 -30.089 -31.310  0.00  0.00    -0.061 A 
ENDBRANCH  22  26
ENDBRANCH   1  22
TORSDOF 5
ENDMDL
MODEL 3
REMARK VINA RESULT:    -7.619      1.726      9.484
REMARK INTER + INTRA:         -10.633
REMARK INTER:                  -9.947
REMARK INTRA:                  -0.686
REMARK UNBOUND:                -0.787
REMARK  Name = cpd256.pdb
REMARK  5 active torsions:
REMARK  status: ('A' for Active; 'I' for Inactive)
REMARK    1  A    between atoms: C_4  and  C_5
REMARK    2  A    between atoms: C_5  and  N_6
REMARK    3  A    between atoms: C_9  and  N_10
REMARK    4  A    between atoms: N_10  and  C_11
REMARK    5  A    between atoms: C_14  and  C_15
REMARK                            x       y       z     vdW  Elec       q    Type
REMARK                         _______ _______ _______ _____ _____    ______ ____
ROOT
ATOM      1  N   UNL     1      36.682 -35.538 -31.020  0.00  0.00    -0.298 N 
ATOM      2  C   UNL     1      36.141 -34.230 -30.605  0.00  0.00    +0.001 C 
ATOM      3  C   UNL     1      34.784 -34.324 -29.900  0.00  0.00    -0.022 C 
ATOM      4  C   UNL     1      34.648 -35.657 -29.161  0.00  0.00    +0.024 C 
ATOM      5  C   UNL     1      34.774 -36.822 -30.158  0.00  0.00    -0.022 C 
ATOM      6  C   UNL     1      35.613 -36.465 -31.389  0.00  0.00    +0.001 C 
ATOM      7  H   UNL     1      37.168 -35.932 -30.215  0.00  0.00    +0.000 HD
ENDROOT
BRANCH   4   8
ATOM      8  N   UNL     1      33.350 -35.763 -28.478  0.00  0.00    -0.325 N 
ATOM      9  H   UNL     1      32.508 -35.523 -28.926  0.00  0.00    +0.000 HD
BRANCH   8  10
ATOM     10  C   UNL     1      33.378 -36.225 -27.160  0.00  0.00    +0.141 A 
ATOM     11  C   UNL     1      32.450 -35.830 -26.213  0.00  0.00    -0.018 A 
ATOM     12  C   UNL     1      32.537 -36.328 -24.912  0.00  0.00    -0.031 A 
ATOM     13  C   UNL     1      33.557 -37.212 -24.587  0.00  0.00    +0.093 A 
ATOM     14  N   UNL     1      34.461 -37.562 -25.529  0.00  0.00    -0.147 NA
ATOM     15  N   UNL     1      34.373 -37.060 -26.814  0.00  0.00    -0.134 NA
BRANCH  13  16
ATOM     16  C   UNL     1      33.740 -37.802 -23.246  0.00  0.00    +0.002 A 
ATOM     17  C   UNL     1      33.392 -39.136 -22.960  0.00  0.00    -0.053 A 
ATOM     18  C   UNL     1      33.570 -39.679 -21.683  0.00  0.00    -0.061 A 
ATOM     19  C   UNL     1      34.102 -38.900 -20.661  0.00  0.00    -0.062 A 
ATOM     20  C   UNL     1      34.463 -37.580 -20.916  0.00  0.00    -0.061 A 
ATOM     21  C   UNL     1      34.286 -37.041 -22.194  0.00  0.00    -0.053 A 
ENDBRANCH  13  16
ENDBRANCH   8  10
ENDBRANCH   4   8
BRANCH   1  22
ATOM     22  C   UNL     1      37.671 -35.400 -32.103  0.00  0.00    +0.024 C 
BRANCH  22  26
ATOM     23  C   UNL     1      41.524 -37.086 -31.112  0.00  0.00    -0.062 A 
ATOM     24  C   UNL     1      40.446 -37.250 -30.244  0.00  0.00    -0.061 A 
ATOM     25  C   UNL     1      39.203 -36.705 -30.563  0.00  0.00    -0.057 A 
ATOM     26  C   UNL     1      39.024 -35.987 -31.756  0.00  0.00    -0.033 A 
ATOM     27  C   UNL     1      40.115 -35.829 -32.622  0.00  0.00    -0.057 A 
ATOM     28  C   UNL     1      41.359 -36.376 -32.299  0.00  0.00    -0.061 A 
ENDBRANCH  22  26
ENDBRANCH   1  22
TORSDOF 5
ENDMDL
MODEL 4
REMARK VINA RESULT:    -7.515      1.302      2.042
REMARK INTER + INTRA:         -10.498
REMARK INTER:                  -9.732
REMARK INTRA:                  -0.766
REMARK UNBOUND:                -0.787
REMARK  Name = cpd256.pdb
REMARK  5 active torsions:
REMARK  status: ('A' for Active; 'I' for Inactive)
REMARK    1  A    between atoms: C_4  and  C_5
REMARK    2  A    between atoms: C_5  and  N_6
REMARK    3  A    between atoms: C_9  and  N_10
REMARK    4  A    between atoms: N_10  and  C_11
REMARK    5  A    between atoms: C_14  and  C_15
REMARK                            x       y       z     vdW  Elec       q    Type
REMARK                         _______ _______ _______ _____ _____    ______ ____
ROOT
ATOM      1  N   UNL     1      33.610 -39.384 -23.198  0.00  0.00    -0.298 N 
ATOM      2  C   UNL     1      32.916 -40.277 -24.145  0.00  0.00    +0.001 C 
ATOM      3  C   UNL     1      32.756 -39.679 -25.547  0.00  0.00    -0.022 C 
ATOM      4  C   UNL     1      33.900 -38.712 -25.858  0.00  0.00    +0.024 C 
ATOM      5  C   UNL     1      33.914 -37.570 -24.826  0.00  0.00    -0.022 C 
ATOM      6  C   UNL     1      33.316 -37.979 -23.477  0.00  0.00    +0.001 C 
ATOM      7  H   UNL     1      34.612 -39.522 -23.333  0.00  0.00    +0.000 HD
ENDROOT
BRANCH   4   8
ATOM      8  N   UNL     1      33.762 -38.129 -27.200  0.00  0.00    -0.325 N 
ATOM      9  H   UNL     1      32.880 -37.971 -27.609  0.00  0.00    +0.000 HD
BRANCH   8  10
ATOM     10  C   UNL     1      34.948 -37.809 -27.864  0.00  0.00    +0.141 A 
ATOM     11  C   UNL     1      35.098 -36.651 -28.606  0.00  0.00    -0.018 A 
ATOM     12  C   UNL     1      36.311 -36.395 -29.248  0.00  0.00    -0.031 A 
ATOM     13  C   UNL     1      37.350 -37.308 -29.133  0.00  0.00    +0.093 A 
ATOM     14  N   UNL     1      37.166 -38.440 -28.418  0.00  0.00    -0.147 NA
ATOM     15  N   UNL     1      35.960 -38.692 -27.790  0.00  0.00    -0.134 NA
BRANCH  13  16
ATOM     16  C   UNL     1      38.673 -37.135 -29.764  0.00  0.00    +0.002 A 
ATOM     17  C   UNL     1      38.906 -36.172 -30.765  0.00  0.00    -0.053 A 
ATOM     18  C   UNL     1      40.165 -36.023 -31.355  0.00  0.00    -0.061 A 
ATOM     19  C   UNL     1      41.224 -36.831 -30.955  0.00  0.00    -0.062 A 
ATOM     20  C   UNL     1      41.026 -37.786 -29.963  0.00  0.00    -0.061 A 
ATOM     21  C   UNL     1      39.766 -37.932 -29.374  0.00  0.00    -0.053 A 
ENDBRANCH  13  16
ENDBRANCH   8  10
ENDBRANCH   4   8
BRANCH   1  22
ATOM     22  C   UNL     1      33.306 -39.730 -21.799  0.00  0.00    +0.024 C 
BRANCH  22  26
ATOM     23  C   UNL     1      36.675 -41.394 -19.666  0.00  0.00    -0.062 A 
ATOM     24  C   UNL     1      36.043 -40.248 -19.188  0.00  0.00    -0.061 A 
ATOM     25  C   UNL     1      34.956 -39.710 -19.877  0.00  0.00    -0.057 A 
ATOM     26  C   UNL     1      34.490 -40.313 -21.056  0.00  0.00    -0.033 A 
ATOM     27  C   UNL     1      35.133 -41.466 -21.527  0.00  0.00    -0.057 A 
ATOM     28  C   UNL     1      36.221 -42.002 -20.834  0.00  0.00    -0.061 A 
ENDBRANCH  22  26
ENDBRANCH   1  22
TORSDOF 5
ENDMDL
MODEL 5
REMARK VINA RESULT:    -7.469     33.151     35.118
REMARK INTER + INTRA:         -10.438
REMARK INTER:                  -9.673
REMARK INTRA:                  -0.765
REMARK UNBOUND:                -0.787
REMARK  Name = cpd256.pdb
REMARK  5 active torsions:
REMARK  status: ('A' for Active; 'I' for Inactive)
REMARK    1  A    between atoms: C_4  and  C_5
REMARK    2  A    between atoms: C_5  and  N_6
REMARK    3  A    between atoms: C_9  and  N_10
REMARK    4  A    between atoms: N_10  and  C_11
REMARK    5  A    between atoms: C_14  and  C_15
REMARK                            x       y       z     vdW  Elec       q    Type
REMARK                         _______ _______ _______ _____ _____    ______ ____
ROOT
ATOM      1  N   UNL     1      60.052 -18.016 -11.883  0.00  0.00    -0.298 N 
ATOM      2  C   UNL     1      61.342 -17.321 -12.054  0.00  0.00    +0.001 C 
ATOM      3  C   UNL     1      62.391 -17.710 -11.006  0.00  0.00    -0.022 C 
ATOM      4  C   UNL     1      62.171 -19.146 -10.525  0.00  0.00    +0.024 C 
ATOM      5  C   UNL     1      60.769 -19.280  -9.903  0.00  0.00    -0.022 C 
ATOM      6  C   UNL     1      59.766 -18.272 -10.473  0.00  0.00    +0.001 C 
ATOM      7  H   UNL     1      60.132 -18.919 -12.350  0.00  0.00    +0.000 HD
ENDROOT
BRANCH   4   8
ATOM      8  N   UNL     1      63.169 -19.536  -9.519  0.00  0.00    -0.325 N 
ATOM      9  H   UNL     1      63.834 -18.897  -9.175  0.00  0.00    +0.000 HD
BRANCH   8  10
ATOM     10  C   UNL     1      63.123 -20.860  -9.078  0.00  0.00    +0.141 A 
ATOM     11  C   UNL     1      62.995 -21.930  -9.945  0.00  0.00    -0.018 A 
ATOM     12  C   UNL     1      62.952 -23.229  -9.436  0.00  0.00    -0.031 A 
ATOM     13  C   UNL     1      63.036 -23.428  -8.065  0.00  0.00    +0.093 A 
ATOM     14  N   UNL     1      63.139 -22.361  -7.242  0.00  0.00    -0.147 NA
ATOM     15  N   UNL     1      63.175 -21.076  -7.752  0.00  0.00    -0.134 NA
BRANCH  13  16
ATOM     16  C   UNL     1      63.006 -24.756  -7.422  0.00  0.00    +0.002 A 
ATOM     17  C   UNL     1      63.933 -25.130  -6.430  0.00  0.00    -0.053 A 
ATOM     18  C   UNL     1      63.890 -26.394  -5.832  0.00  0.00    -0.061 A 
ATOM     19  C   UNL     1      62.919 -27.314  -6.210  0.00  0.00    -0.062 A 
ATOM     20  C   UNL     1      61.984 -26.970  -7.182  0.00  0.00    -0.061 A 
ATOM     21  C   UNL     1      62.028 -25.705  -7.777  0.00  0.00    -0.053 A 
ENDBRANCH  13  16
ENDBRANCH   8  10
ENDBRANCH   4   8
BRANCH   1  22
ATOM     22  C   UNL     1      58.949 -17.286 -12.531  0.00  0.00    +0.024 C 
BRANCH  22  26
ATOM     23  C   UNL     1      55.750 -19.871 -13.854  0.00  0.00    -0.062 A 
ATOM     24  C   UNL     1      57.030 -20.017 -14.386  0.00  0.00    -0.061 A 
ATOM     25  C   UNL     1      58.063 -19.180 -13.959  0.00  0.00    -0.057 A 
ATOM     26  C   UNL     1      57.825 -18.188 -12.996  0.00  0.00    -0.033 A 
ATOM     27  C   UNL     1      56.534 -18.053 -12.467  0.00  0.00    -0.057 A 
ATOM     28  C   UNL     1      55.502 -18.891 -12.896  0.00  0.00    -0.061 A 
ENDBRANCH  22  26
ENDBRANCH   1  22
TORSDOF 5
ENDMDL
MODEL 6
REMARK VINA RESULT:    -7.203     17.915     23.966
REMARK INTER + INTRA:         -10.095
REMARK INTER:                  -9.336
REMARK INTRA:                  -0.759
REMARK UNBOUND:                -0.787
REMARK  Name = cpd256.pdb
REMARK  5 active torsions:
REMARK  status: ('A' for Active; 'I' for Inactive)
REMARK    1  A    between atoms: C_4  and  C_5
REMARK    2  A    between atoms: C_5  and  N_6
REMARK    3  A    between atoms: C_9  and  N_10
REMARK    4  A    between atoms: N_10  and  C_11
REMARK    5  A    between atoms: C_14  and  C_15
REMARK                            x       y       z     vdW  Elec       q    Type
REMARK                         _______ _______ _______ _____ _____    ______ ____
ROOT
ATOM      1  N   UNL     1      45.486 -19.592 -40.597  0.00  0.00    -0.298 N 
ATOM      2  C   UNL     1      44.848 -19.884 -41.894  0.00  0.00    +0.001 C 
ATOM      3  C   UNL     1      43.734 -20.935 -41.807  0.00  0.00    -0.022 C 
ATOM      4  C   UNL     1      43.062 -20.900 -40.433  0.00  0.00    +0.024 C 
ATOM      5  C   UNL     1      44.103 -21.183 -39.335  0.00  0.00    -0.022 C 
ATOM      6  C   UNL     1      45.523 -20.778 -39.741  0.00  0.00    +0.001 C 
ATOM      7  H   UNL     1      44.910 -18.892 -40.128  0.00  0.00    +0.000 HD
ENDROOT
BRANCH   4   8
ATOM      8  N   UNL     1      41.991 -21.902 -40.333  0.00  0.00    -0.325 N 
ATOM      9  H   UNL     1      41.841 -22.572 -41.038  0.00  0.00    +0.000 HD
BRANCH   8  10
ATOM     10  C   UNL     1      41.200 -21.852 -39.184  0.00  0.00    +0.141 A 
ATOM     11  C   UNL     1      40.460 -20.736 -38.835  0.00  0.00    -0.018 A 
ATOM     12  C   UNL     1      39.692 -20.752 -37.670  0.00  0.00    -0.031 A 
ATOM     13  C   UNL     1      39.683 -21.890 -36.876  0.00  0.00    +0.093 A 
ATOM     14  N   UNL     1      40.431 -22.958 -37.231  0.00  0.00    -0.147 NA
ATOM     15  N   UNL     1      41.196 -22.933 -38.383  0.00  0.00    -0.134 NA
BRANCH  13  16
ATOM     16  C   UNL     1      38.904 -22.018 -35.628  0.00  0.00    +0.002 A 
ATOM     17  C   UNL     1      38.224 -20.926 -35.054  0.00  0.00    -0.053 A 
ATOM     18  C   UNL     1      37.493 -21.064 -33.870  0.00  0.00    -0.061 A 
ATOM     19  C   UNL     1      37.420 -22.297 -33.232  0.00  0.00    -0.062 A 
ATOM     20  C   UNL     1      38.075 -23.397 -33.781  0.00  0.00    -0.061 A 
ATOM     21  C   UNL     1      38.804 -23.256 -34.965  0.00  0.00    -0.053 A 
ENDBRANCH  13  16
ENDBRANCH   8  10
ENDBRANCH   4   8
BRANCH   1  22
ATOM     22  C   UNL     1      46.828 -19.011 -40.767  0.00  0.00    +0.024 C 
BRANCH  22  26
ATOM     23  C   UNL     1      47.398 -15.335 -38.569  0.00  0.00    -0.062 A 
ATOM     24  C   UNL     1      47.227 -16.538 -37.886  0.00  0.00    -0.061 A 
ATOM     25  C   UNL     1      47.042 -17.725 -38.596  0.00  0.00    -0.057 A 
ATOM     26  C   UNL     1      47.024 -17.720 -39.999  0.00  0.00    -0.033 A 
ATOM     27  C   UNL     1      47.198 -16.504 -40.675  0.00  0.00    -0.057 A 
ATOM     28  C   UNL     1      47.382 -15.318 -39.961  0.00  0.00    -0.061 A 
ENDBRANCH  22  26
ENDBRANCH   1  22
TORSDOF 5
ENDMDL
MODEL 7
REMARK VINA RESULT:    -7.073     19.240     24.365
REMARK INTER + INTRA:          -9.927
REMARK INTER:                  -9.490
REMARK INTRA:                  -0.437
REMARK UNBOUND:                -0.787
REMARK  Name = cpd256.pdb
REMARK  5 active torsions:
REMARK  status: ('A' for Active; 'I' for Inactive)
REMARK    1  A    between atoms: C_4  and  C_5
REMARK    2  A    between atoms: C_5  and  N_6
REMARK    3  A    between atoms: C_9  and  N_10
REMARK    4  A    between atoms: N_10  and  C_11
REMARK    5  A    between atoms: C_14  and  C_15
REMARK                            x       y       z     vdW  Elec       q    Type
REMARK                         _______ _______ _______ _____ _____    ______ ____
ROOT
ATOM      1  N   UNL     1      46.932 -19.035 -39.407  0.00  0.00    -0.298 N 
ATOM      2  C   UNL     1      47.160 -17.666 -38.908  0.00  0.00    +0.001 C 
ATOM      3  C   UNL     1      46.985 -17.530 -37.391  0.00  0.00    -0.022 C 
ATOM      4  C   UNL     1      47.334 -18.842 -36.685  0.00  0.00    +0.024 C 
ATOM      5  C   UNL     1      46.417 -19.969 -37.195  0.00  0.00    -0.022 C 
ATOM      6  C   UNL     1      45.913 -19.727 -38.621  0.00  0.00    +0.001 C 
ATOM      7  H   UNL     1      47.807 -19.547 -39.296  0.00  0.00    +0.000 HD
ENDROOT
BRANCH   4   8
ATOM      8  N   UNL     1      47.171 -18.729 -35.228  0.00  0.00    -0.325 N 
ATOM      9  H   UNL     1      47.936 -18.557 -34.633  0.00  0.00    +0.000 HD
BRANCH   8  10
ATOM     10  C   UNL     1      45.874 -18.880 -34.734  0.00  0.00    +0.141 A 
ATOM     11  C   UNL     1      44.988 -17.822 -34.630  0.00  0.00    -0.018 A 
ATOM     12  C   UNL     1      43.706 -18.042 -34.124  0.00  0.00    -0.031 A 
ATOM     13  C   UNL     1      43.339 -19.322 -33.730  0.00  0.00    +0.093 A 
ATOM     14  N   UNL     1      44.233 -20.331 -33.825  0.00  0.00    -0.147 NA
ATOM     15  N   UNL     1      45.504 -20.105 -34.321  0.00  0.00    -0.134 NA
BRANCH  13  16
ATOM     16  C   UNL     1      42.010 -19.667 -33.188  0.00  0.00    +0.002 A 
ATOM     17  C   UNL     1      41.551 -20.997 -33.117  0.00  0.00    -0.053 A 
ATOM     18  C   UNL     1      40.288 -21.306 -32.601  0.00  0.00    -0.061 A 
ATOM     19  C   UNL     1      39.454 -20.293 -32.142  0.00  0.00    -0.062 A 
ATOM     20  C   UNL     1      39.883 -18.970 -32.192  0.00  0.00    -0.061 A 
ATOM     21  C   UNL     1      41.147 -18.664 -32.706  0.00  0.00    -0.053 A 
ENDBRANCH  13  16
ENDBRANCH   8  10
ENDBRANCH   4   8
BRANCH   1  22
ATOM     22  C   UNL     1      46.601 -19.043 -40.842  0.00  0.00    +0.024 C 
BRANCH  22  26
ATOM     23  C   UNL     1      46.646 -23.004 -42.569  0.00  0.00    -0.062 A 
ATOM     24  C   UNL     1      47.786 -22.502 -41.943  0.00  0.00    -0.061 A 
ATOM     25  C   UNL     1      47.771 -21.222 -41.387  0.00  0.00    -0.057 A 
ATOM     26  C   UNL     1      46.616 -20.430 -41.452  0.00  0.00    -0.033 A 
ATOM     27  C   UNL     1      45.475 -20.946 -42.083  0.00  0.00    -0.057 A 
ATOM     28  C   UNL     1      45.492 -22.227 -42.640  0.00  0.00    -0.061 A 
ENDBRANCH  22  26
ENDBRANCH   1  22
TORSDOF 5
ENDMDL
MODEL 8
REMARK VINA RESULT:    -7.055      5.188      9.565
REMARK INTER + INTRA:          -9.903
REMARK INTER:                  -9.084
REMARK INTRA:                  -0.819
REMARK UNBOUND:                -0.787
REMARK  Name = cpd256.pdb
REMARK  5 active torsions:
REMARK  status: ('A' for Active; 'I' for Inactive)
REMARK    1  A    between atoms: C_4  and  C_5
REMARK    2  A    between atoms: C_5  and  N_6
REMARK    3  A    between atoms: C_9  and  N_10
REMARK    4  A    between atoms: N_10  and  C_11
REMARK    5  A    between atoms: C_14  and  C_15
REMARK                            x       y       z     vdW  Elec       q    Type
REMARK                         _______ _______ _______ _____ _____    ______ ____
ROOT
ATOM      1  N   UNL     1      37.128 -37.586 -29.865  0.00  0.00    -0.298 N 
ATOM      2  C   UNL     1      36.381 -38.820 -30.169  0.00  0.00    +0.001 C 
ATOM      3  C   UNL     1      34.867 -38.687 -29.964  0.00  0.00    -0.022 C 
ATOM      4  C   UNL     1      34.412 -37.247 -30.207  0.00  0.00    +0.024 C 
ATOM      5  C   UNL     1      35.133 -36.299 -29.232  0.00  0.00    -0.022 C 
ATOM      6  C   UNL     1      36.496 -36.833 -28.782  0.00  0.00    +0.001 C 
ATOM      7  H   UNL     1      37.101 -37.003 -30.701  0.00  0.00    +0.000 HD
ENDROOT
BRANCH   4   8
ATOM      8  N   UNL     1      32.961 -37.102 -30.014  0.00  0.00    -0.325 N 
ATOM      9  H   UNL     1      32.414 -37.826 -29.632  0.00  0.00    +0.000 HD
BRANCH   8  10
ATOM     10  C   UNL     1      32.402 -35.883 -30.402  0.00  0.00    +0.141 A 
ATOM     11  C   UNL     1      32.650 -35.308 -31.636  0.00  0.00    -0.018 A 
ATOM     12  C   UNL     1      32.060 -34.084 -31.958  0.00  0.00    -0.031 A 
ATOM     13  C   UNL     1      31.233 -33.461 -31.034  0.00  0.00    +0.093 A 
ATOM     14  N   UNL     1      31.027 -34.038 -29.829  0.00  0.00    -0.147 NA
ATOM     15  N   UNL     1      31.619 -35.247 -29.513  0.00  0.00    -0.134 NA
BRANCH  13  16
ATOM     16  C   UNL     1      30.556 -32.171 -31.272  0.00  0.00    +0.002 A 
ATOM     17  C   UNL     1      29.496 -32.040 -32.190  0.00  0.00    -0.053 A 
ATOM     18  C   UNL     1      28.867 -30.809 -32.405  0.00  0.00    -0.061 A 
ATOM     19  C   UNL     1      29.281 -29.681 -31.706  0.00  0.00    -0.062 A 
ATOM     20  C   UNL     1      30.321 -29.782 -30.787  0.00  0.00    -0.061 A 
ATOM     21  C   UNL     1      30.947 -31.014 -30.573  0.00  0.00    -0.053 A 
ENDBRANCH  13  16
ENDBRANCH   8  10
ENDBRANCH   4   8
BRANCH   1  22
ATOM     22  C   UNL     1      38.544 -37.863 -29.571  0.00  0.00    +0.024 C 
BRANCH  22  26
ATOM     23  C   UNL     1      41.282 -35.483 -31.917  0.00  0.00    -0.062 A 
ATOM     24  C   UNL     1      41.769 -36.335 -30.928  0.00  0.00    -0.061 A 
ATOM     25  C   UNL     1      40.885 -37.102 -30.169  0.00  0.00    -0.057 A 
ATOM     26  C   UNL     1      39.501 -37.025 -30.392  0.00  0.00    -0.033 A 
ATOM     27  C   UNL     1      39.023 -36.165 -31.391  0.00  0.00    -0.057 A 
ATOM     28  C   UNL     1      39.911 -35.398 -32.149  0.00  0.00    -0.061 A 
ENDBRANCH  22  26
ENDBRANCH   1  22
TORSDOF 5
ENDMDL
MODEL 9
REMARK VINA RESULT:    -7.008      7.396     11.044
REMARK INTER + INTRA:          -9.843
REMARK INTER:                  -9.005
REMARK INTRA:                  -0.837
REMARK UNBOUND:                -0.787
REMARK  Name = cpd256.pdb
REMARK  5 active torsions:
REMARK  status: ('A' for Active; 'I' for Inactive)
REMARK    1  A    between atoms: C_4  and  C_5
REMARK    2  A    between atoms: C_5  and  N_6
REMARK    3  A    between atoms: C_9  and  N_10
REMARK    4  A    between atoms: N_10  and  C_11
REMARK    5  A    between atoms: C_14  and  C_15
REMARK                            x       y       z     vdW  Elec       q    Type
REMARK                         _______ _______ _______ _____ _____    ______ ____
ROOT
ATOM      1  N   UNL     1      34.992 -34.356 -30.860  0.00  0.00    -0.298 N 
ATOM      2  C   UNL     1      35.061 -32.886 -30.954  0.00  0.00    +0.001 C 
ATOM      3  C   UNL     1      33.799 -32.250 -31.549  0.00  0.00    -0.022 C 
ATOM      4  C   UNL     1      32.566 -33.100 -31.238  0.00  0.00    +0.024 C 
ATOM      5  C   UNL     1      32.740 -34.510 -31.829  0.00  0.00    -0.022 C 
ATOM      6  C   UNL     1      34.209 -34.925 -31.956  0.00  0.00    +0.001 C 
ATOM      7  H   UNL     1      34.511 -34.581 -29.989  0.00  0.00    +0.000 HD
ENDROOT
BRANCH   4   8
ATOM      8  N   UNL     1      31.346 -32.503 -31.802  0.00  0.00    -0.325 N 
ATOM      9  H   UNL     1      31.006 -32.760 -32.690  0.00  0.00    +0.000 HD
BRANCH   8  10
ATOM     10  C   UNL     1      30.694 -31.555 -31.011  0.00  0.00    +0.141 A 
ATOM     11  C   UNL     1      30.673 -31.625 -29.629  0.00  0.00    -0.018 A 
ATOM     12  C   UNL     1      30.000 -30.644 -28.899  0.00  0.00    -0.031 A 
ATOM     13  C   UNL     1      29.359 -29.612 -29.571  0.00  0.00    +0.093 A 
ATOM     14  N   UNL     1      29.381 -29.582 -30.922  0.00  0.00    -0.147 NA
ATOM     15  N   UNL     1      30.044 -30.561 -31.641  0.00  0.00    -0.134 NA
BRANCH  13  16
ATOM     16  C   UNL     1      28.624 -28.522 -28.899  0.00  0.00    +0.002 A 
ATOM     17  C   UNL     1      27.918 -28.724 -27.698  0.00  0.00    -0.053 A 
ATOM     18  C   UNL     1      27.225 -27.680 -27.076  0.00  0.00    -0.061 A 
ATOM     19  C   UNL     1      27.223 -26.409 -27.639  0.00  0.00    -0.062 A 
ATOM     20  C   UNL     1      27.918 -26.178 -28.822  0.00  0.00    -0.061 A 
ATOM     21  C   UNL     1      28.612 -27.223 -29.441  0.00  0.00    -0.053 A 
ENDBRANCH  13  16
ENDBRANCH   8  10
ENDBRANCH   4   8
BRANCH   1  22
ATOM     22  C   UNL     1      36.332 -34.962 -30.787  0.00  0.00    +0.024 C 
BRANCH  22  26
ATOM     23  C   UNL     1      36.741 -37.844 -27.594  0.00  0.00    -0.062 A 
ATOM     24  C   UNL     1      37.771 -37.674 -28.517  0.00  0.00    -0.061 A 
ATOM     25  C   UNL     1      37.639 -36.744 -29.549  0.00  0.00    -0.057 A 
ATOM     26  C   UNL     1      36.471 -35.975 -29.669  0.00  0.00    -0.033 A 
ATOM     27  C   UNL     1      35.442 -36.154 -28.734  0.00  0.00    -0.057 A 
ATOM     28  C   UNL     1      35.578 -37.086 -27.703  0.00  0.00    -0.061 A 
ENDBRANCH  22  26
ENDBRANCH   1  22
TORSDOF 5
ENDMDL
MODEL 10
REMARK VINA RESULT:    -6.943      5.488      8.479
REMARK INTER + INTRA:          -9.759
REMARK INTER:                  -8.935
REMARK INTRA:                  -0.824
REMARK UNBOUND:                -0.787
REMARK  Name = cpd256.pdb
REMARK  5 active torsions:
REMARK  status: ('A' for Active; 'I' for Inactive)
REMARK    1  A    between atoms: C_4  and  C_5
REMARK    2  A    between atoms: C_5  and  N_6
REMARK    3  A    between atoms: C_9  and  N_10
REMARK    4  A    between atoms: N_10  and  C_11
REMARK    5  A    between atoms: C_14  and  C_15
REMARK                            x       y       z     vdW  Elec       q    Type
REMARK                         _______ _______ _______ _____ _____    ______ ____
ROOT
ATOM      1  N   UNL     1      30.982 -36.254 -32.404  0.00  0.00    -0.298 N 
ATOM      2  C   UNL     1      31.420 -34.858 -32.585  0.00  0.00    +0.001 C 
ATOM      3  C   UNL     1      32.430 -34.390 -31.531  0.00  0.00    -0.022 C 
ATOM      4  C   UNL     1      33.271 -35.564 -31.028  0.00  0.00    +0.024 C 
ATOM      5  C   UNL     1      32.356 -36.633 -30.403  0.00  0.00    -0.022 C 
ATOM      6  C   UNL     1      30.941 -36.621 -30.989  0.00  0.00    +0.001 C 
ATOM      7  H   UNL     1      31.676 -36.849 -32.856  0.00  0.00    +0.000 HD
ENDROOT
BRANCH   4   8
ATOM      8  N   UNL     1      34.246 -35.132 -30.015  0.00  0.00    -0.325 N 
ATOM      9  H   UNL     1      33.981 -34.584 -29.242  0.00  0.00    +0.000 HD
BRANCH   8  10
ATOM     10  C   UNL     1      35.566 -35.542 -30.210  0.00  0.00    +0.141 A 
ATOM     11  C   UNL     1      36.236 -36.352 -29.310  0.00  0.00    -0.018 A 
ATOM     12  C   UNL     1      37.558 -36.722 -29.564  0.00  0.00    -0.031 A 
ATOM     13  C   UNL     1      38.182 -36.268 -30.718  0.00  0.00    +0.093 A 
ATOM     14  N   UNL     1      37.509 -35.461 -31.567  0.00  0.00    -0.147 NA
ATOM     15  N   UNL     1      36.202 -35.093 -31.306  0.00  0.00    -0.134 NA
BRANCH  13  16
ATOM     16  C   UNL     1      39.573 -36.601 -31.087  0.00  0.00    +0.002 A 
ATOM     17  C   UNL     1      40.086 -36.353 -32.374  0.00  0.00    -0.053 A 
ATOM     18  C   UNL     1      41.406 -36.677 -32.707  0.00  0.00    -0.061 A 
ATOM     19  C   UNL     1      42.244 -37.255 -31.761  0.00  0.00    -0.062 A 
ATOM     20  C   UNL     1      41.766 -37.505 -30.478  0.00  0.00    -0.061 A 
ATOM     21  C   UNL     1      40.447 -37.179 -30.147  0.00  0.00    -0.053 A 
ENDBRANCH  13  16
ENDBRANCH   8  10
ENDBRANCH   4   8
BRANCH   1  22
ATOM     22  C   UNL     1      29.691 -36.512 -33.063  0.00  0.00    +0.024 C 
BRANCH  22  26
ATOM     23  C   UNL     1      30.092 -38.452 -36.903  0.00  0.00    -0.062 A 
ATOM     24  C   UNL     1      31.105 -38.569 -35.953  0.00  0.00    -0.061 A 
ATOM     25  C   UNL     1      30.975 -37.941 -34.713  0.00  0.00    -0.057 A 
ATOM     26  C   UNL     1      29.831 -37.188 -34.412  0.00  0.00    -0.033 A 
ATOM     27  C   UNL     1      28.818 -37.078 -35.375  0.00  0.00    -0.057 A 
ATOM     28  C   UNL     1      28.950 -37.707 -36.615  0.00  0.00    -0.061 A 
ENDBRANCH  22  26
ENDBRANCH   1  22
TORSDOF 5
ENDMDL
MODEL 11
REMARK VINA RESULT:    -6.895     18.671     23.577
REMARK INTER + INTRA:          -9.697
REMARK INTER:                  -8.994
REMARK INTRA:                  -0.704
REMARK UNBOUND:                -0.787
REMARK  Name = cpd256.pdb
REMARK  5 active torsions:
REMARK  status: ('A' for Active; 'I' for Inactive)
REMARK    1  A    between atoms: C_4  and  C_5
REMARK    2  A    between atoms: C_5  and  N_6
REMARK    3  A    between atoms: C_9  and  N_10
REMARK    4  A    between atoms: N_10  and  C_11
REMARK    5  A    between atoms: C_14  and  C_15
REMARK                            x       y       z     vdW  Elec       q    Type
REMARK                         _______ _______ _______ _____ _____    ______ ____
ROOT
ATOM      1  N   UNL     1      45.764 -19.372 -38.332  0.00  0.00    -0.298 N 
ATOM      2  C   UNL     1      46.653 -20.281 -37.584  0.00  0.00    +0.001 C 
ATOM      3  C   UNL     1      46.363 -20.320 -36.079  0.00  0.00    -0.022 C 
ATOM      4  C   UNL     1      44.885 -20.039 -35.804  0.00  0.00    +0.024 C 
ATOM      5  C   UNL     1      44.506 -18.650 -36.350  0.00  0.00    -0.022 C 
ATOM      6  C   UNL     1      45.385 -18.213 -37.526  0.00  0.00    +0.001 C 
ATOM      7  H   UNL     1      44.912 -19.891 -38.546  0.00  0.00    +0.000 HD
ENDROOT
BRANCH   4   8
ATOM      8  N   UNL     1      44.590 -20.072 -34.364  0.00  0.00    -0.325 N 
ATOM      9  H   UNL     1      45.305 -20.121 -33.690  0.00  0.00    +0.000 HD
BRANCH   8  10
ATOM     10  C   UNL     1      43.241 -20.030 -34.005  0.00  0.00    +0.141 A 
ATOM     11  C   UNL     1      42.772 -19.256 -32.958  0.00  0.00    -0.018 A 
ATOM     12  C   UNL     1      41.411 -19.264 -32.651  0.00  0.00    -0.031 A 
ATOM     13  C   UNL     1      40.546 -20.050 -33.400  0.00  0.00    +0.093 A 
ATOM     14  N   UNL     1      41.037 -20.811 -34.403  0.00  0.00    -0.147 NA
ATOM     15  N   UNL     1      42.388 -20.805 -34.699  0.00  0.00    -0.134 NA
BRANCH  13  16
ATOM     16  C   UNL     1      39.091 -20.129 -33.165  0.00  0.00    +0.002 A 
ATOM     17  C   UNL     1      38.311 -18.985 -32.904  0.00  0.00    -0.053 A 
ATOM     18  C   UNL     1      36.933 -19.079 -32.681  0.00  0.00    -0.061 A 
ATOM     19  C   UNL     1      36.301 -20.317 -32.716  0.00  0.00    -0.062 A 
ATOM     20  C   UNL     1      37.045 -21.463 -32.979  0.00  0.00    -0.061 A 
ATOM     21  C   UNL     1      38.422 -21.367 -33.203  0.00  0.00    -0.053 A 
ENDBRANCH  13  16
ENDBRANCH   8  10
ENDBRANCH   4   8
BRANCH   1  22
ATOM     22  C   UNL     1      46.358 -18.962 -39.616  0.00  0.00    +0.024 C 
BRANCH  22  26
ATOM     23  C   UNL     1      44.534 -20.894 -43.023  0.00  0.00    -0.062 A 
ATOM     24  C   UNL     1      45.413 -21.603 -42.206  0.00  0.00    -0.061 A 
ATOM     25  C   UNL     1      46.003 -20.978 -41.107  0.00  0.00    -0.057 A 
ATOM     26  C   UNL     1      45.721 -19.636 -40.813  0.00  0.00    -0.033 A 
ATOM     27  C   UNL     1      44.834 -18.933 -41.642  0.00  0.00    -0.057 A 
ATOM     28  C   UNL     1      44.245 -19.561 -42.741  0.00  0.00    -0.061 A 
ENDBRANCH  22  26
ENDBRANCH   1  22
TORSDOF 5
ENDMDL
MODEL 12
REMARK VINA RESULT:    -6.889     18.911     21.805
REMARK INTER + INTRA:          -9.690
REMARK INTER:                  -8.876
REMARK INTRA:                  -0.814
REMARK UNBOUND:                -0.787
REMARK  Name = cpd256.pdb
REMARK  5 active torsions:
REMARK  status: ('A' for Active; 'I' for Inactive)
REMARK    1  A    between atoms: C_4  and  C_5
REMARK    2  A    between atoms: C_5  and  N_6
REMARK    3  A    between atoms: C_9  and  N_10
REMARK    4  A    between atoms: N_10  and  C_11
REMARK    5  A    between atoms: C_14  and  C_15
REMARK                            x       y       z     vdW  Elec       q    Type
REMARK                         _______ _______ _______ _____ _____    ______ ____
ROOT
ATOM      1  N   UNL     1      41.567 -18.517 -33.653  0.00  0.00    -0.298 N 
ATOM      2  C   UNL     1      41.584 -17.519 -34.739  0.00  0.00    +0.001 C 
ATOM      3  C   UNL     1      42.962 -17.345 -35.389  0.00  0.00    -0.022 C 
ATOM      4  C   UNL     1      43.764 -18.644 -35.315  0.00  0.00    +0.024 C 
ATOM      5  C   UNL     1      43.955 -19.058 -33.844  0.00  0.00    -0.022 C 
ATOM      6  C   UNL     1      42.838 -18.543 -32.931  0.00  0.00    +0.001 C 
ATOM      7  H   UNL     1      41.439 -19.432 -34.085  0.00  0.00    +0.000 HD
ENDROOT
BRANCH   4   8
ATOM      8  N   UNL     1      45.090 -18.494 -35.934  0.00  0.00    -0.325 N 
ATOM      9  H   UNL     1      45.739 -17.828 -35.613  0.00  0.00    +0.000 HD
BRANCH   8  10
ATOM     10  C   UNL     1      45.377 -19.347 -37.002  0.00  0.00    +0.141 A 
ATOM     11  C   UNL     1      44.398 -20.064 -37.667  0.00  0.00    -0.018 A 
ATOM     12  C   UNL     1      44.755 -20.902 -38.725  0.00  0.00    -0.031 A 
ATOM     13  C   UNL     1      46.089 -21.004 -39.094  0.00  0.00    +0.093 A 
ATOM     14  N   UNL     1      47.024 -20.306 -38.412  0.00  0.00    -0.147 NA
ATOM     15  N   UNL     1      46.665 -19.483 -37.360  0.00  0.00    -0.134 NA
BRANCH  13  16
ATOM     16  C   UNL     1      46.576 -21.853 -40.199  0.00  0.00    +0.002 A 
ATOM     17  C   UNL     1      45.840 -22.033 -41.386  0.00  0.00    -0.053 A 
ATOM     18  C   UNL     1      46.315 -22.844 -42.422  0.00  0.00    -0.061 A 
ATOM     19  C   UNL     1      47.539 -23.493 -42.297  0.00  0.00    -0.062 A 
ATOM     20  C   UNL     1      48.291 -23.328 -41.138  0.00  0.00    -0.061 A 
ATOM     21  C   UNL     1      47.815 -22.516 -40.104  0.00  0.00    -0.053 A 
ENDBRANCH  13  16
ENDBRANCH   8  10
ENDBRANCH   4   8
BRANCH   1  22
ATOM     22  C   UNL     1      40.433 -18.306 -32.736  0.00  0.00    +0.024 C 
BRANCH  22  26
ATOM     23  C   UNL     1      37.414 -21.383 -33.022  0.00  0.00    -0.062 A 
ATOM     24  C   UNL     1      37.042 -20.041 -32.996  0.00  0.00    -0.061 A 
ATOM     25  C   UNL     1      38.017 -19.047 -32.902  0.00  0.00    -0.057 A 
ATOM     26  C   UNL     1      39.377 -19.387 -32.832  0.00  0.00    -0.033 A 
ATOM     27  C   UNL     1      39.739 -20.741 -32.860  0.00  0.00    -0.057 A 
ATOM     28  C   UNL     1      38.761 -21.733 -32.954  0.00  0.00    -0.061 A 
ENDBRANCH  22  26
ENDBRANCH   1  22
TORSDOF 5
ENDMDL
MODEL 13
REMARK VINA RESULT:    -6.790      2.007      3.801
REMARK INTER + INTRA:          -9.562
REMARK INTER:                  -8.746
REMARK INTRA:                  -0.815
REMARK UNBOUND:                -0.787
REMARK  Name = cpd256.pdb
REMARK  5 active torsions:
REMARK  status: ('A' for Active; 'I' for Inactive)
REMARK    1  A    between atoms: C_4  and  C_5
REMARK    2  A    between atoms: C_5  and  N_6
REMARK    3  A    between atoms: C_9  and  N_10
REMARK    4  A    between atoms: N_10  and  C_11
REMARK    5  A    between atoms: C_14  and  C_15
REMARK                            x       y       z     vdW  Elec       q    Type
REMARK                         _______ _______ _______ _____ _____    ______ ____
ROOT
ATOM      1  N   UNL     1      33.379 -39.683 -21.405  0.00  0.00    -0.298 N 
ATOM      2  C   UNL     1      32.363 -40.521 -22.068  0.00  0.00    +0.001 C 
ATOM      3  C   UNL     1      31.859 -39.940 -23.394  0.00  0.00    -0.022 C 
ATOM      4  C   UNL     1      32.948 -39.102 -24.067  0.00  0.00    +0.024 C 
ATOM      5  C   UNL     1      33.364 -37.945 -23.141  0.00  0.00    -0.022 C 
ATOM      6  C   UNL     1      33.146 -38.262 -21.658  0.00  0.00    +0.001 C 
ATOM      7  H   UNL     1      34.282 -39.925 -21.813  0.00  0.00    +0.000 HD
ENDROOT
BRANCH   4   8
ATOM      8  N   UNL     1      32.481 -38.537 -25.341  0.00  0.00    -0.325 N 
ATOM      9  H   UNL     1      31.524 -38.475 -25.561  0.00  0.00    +0.000 HD
BRANCH   8  10
ATOM     10  C   UNL     1      33.469 -38.093 -26.223  0.00  0.00    +0.141 A 
ATOM     11  C   UNL     1      33.387 -36.880 -26.885  0.00  0.00    -0.018 A 
ATOM     12  C   UNL     1      34.409 -36.499 -27.756  0.00  0.00    -0.031 A 
ATOM     13  C   UNL     1      35.494 -37.344 -27.946  0.00  0.00    +0.093 A 
ATOM     14  N   UNL     1      35.535 -38.531 -27.301  0.00  0.00    -0.147 NA
ATOM     15  N   UNL     1      34.516 -38.906 -26.445  0.00  0.00    -0.134 NA
BRANCH  13  16
ATOM     16  C   UNL     1      36.630 -37.038 -28.838  0.00  0.00    +0.002 A 
ATOM     17  C   UNL     1      37.870 -37.696 -28.725  0.00  0.00    -0.053 A 
ATOM     18  C   UNL     1      38.937 -37.392 -29.577  0.00  0.00    -0.061 A 
ATOM     19  C   UNL     1      38.789 -36.424 -30.564  0.00  0.00    -0.062 A 
ATOM     20  C   UNL     1      37.572 -35.762 -30.705  0.00  0.00    -0.061 A 
ATOM     21  C   UNL     1      36.507 -36.069 -29.852  0.00  0.00    -0.053 A 
ENDBRANCH  13  16
ENDBRANCH   8  10
ENDBRANCH   4   8
BRANCH   1  22
ATOM     22  C   UNL     1      33.462 -39.966 -19.962  0.00  0.00    +0.024 C 
BRANCH  22  26
ATOM     23  C   UNL     1      37.286 -41.568 -18.745  0.00  0.00    -0.062 A 
ATOM     24  C   UNL     1      37.195 -40.259 -19.215  0.00  0.00    -0.061 A 
ATOM     25  C   UNL     1      35.960 -39.742 -19.610  0.00  0.00    -0.057 A 
ATOM     26  C   UNL     1      34.802 -40.531 -19.539  0.00  0.00    -0.033 A 
ATOM     27  C   UNL     1      34.905 -41.846 -19.062  0.00  0.00    -0.057 A 
ATOM     28  C   UNL     1      36.142 -42.360 -18.668  0.00  0.00    -0.061 A 
ENDBRANCH  22  26
ENDBRANCH   1  22
TORSDOF 5
ENDMDL
MODEL 14
REMARK VINA RESULT:    -6.750      6.033     10.377
REMARK INTER + INTRA:          -9.510
REMARK INTER:                  -9.161
REMARK INTRA:                  -0.349
REMARK UNBOUND:                -0.787
REMARK  Name = cpd256.pdb
REMARK  5 active torsions:
REMARK  status: ('A' for Active; 'I' for Inactive)
REMARK    1  A    between atoms: C_4  and  C_5
REMARK    2  A    between atoms: C_5  and  N_6
REMARK    3  A    between atoms: C_9  and  N_10
REMARK    4  A    between atoms: N_10  and  C_11
REMARK    5  A    between atoms: C_14  and  C_15
REMARK                            x       y       z     vdW  Elec       q    Type
REMARK                         _______ _______ _______ _____ _____    ______ ____
ROOT
ATOM      1  N   UNL     1      36.472 -35.228 -30.985  0.00  0.00    -0.298 N 
ATOM      2  C   UNL     1      35.957 -33.871 -30.725  0.00  0.00    +0.001 C 
ATOM      3  C   UNL     1      34.473 -33.842 -30.341  0.00  0.00    -0.022 C 
ATOM      4  C   UNL     1      34.072 -35.134 -29.629  0.00  0.00    +0.024 C 
ATOM      5  C   UNL     1      34.325 -36.340 -30.552  0.00  0.00    -0.022 C 
ATOM      6  C   UNL     1      35.443 -36.087 -31.568  0.00  0.00    +0.001 C 
ATOM      7  H   UNL     1      36.734 -35.629 -30.084  0.00  0.00    +0.000 HD
ENDROOT
BRANCH   4   8
ATOM      8  N   UNL     1      32.650 -35.123 -29.253  0.00  0.00    -0.325 N 
ATOM      9  H   UNL     1      32.226 -35.891 -28.807  0.00  0.00    +0.000 HD
BRANCH   8  10
ATOM     10  C   UNL     1      31.935 -33.964 -29.562  0.00  0.00    +0.141 A 
ATOM     11  C   UNL     1      31.345 -33.760 -30.797  0.00  0.00    -0.018 A 
ATOM     12  C   UNL     1      30.646 -32.576 -31.041  0.00  0.00    -0.031 A 
ATOM     13  C   UNL     1      30.556 -31.619 -30.039  0.00  0.00    +0.093 A 
ATOM     14  N   UNL     1      31.160 -31.839 -28.851  0.00  0.00    -0.147 NA
ATOM     15  N   UNL     1      31.857 -33.011 -28.618  0.00  0.00    -0.134 NA
BRANCH  13  16
ATOM     16  C   UNL     1      29.839 -30.337 -30.187  0.00  0.00    +0.002 A 
ATOM     17  C   UNL     1      29.351 -29.618 -29.079  0.00  0.00    -0.053 A 
ATOM     18  C   UNL     1      28.672 -28.406 -29.238  0.00  0.00    -0.061 A 
ATOM     19  C   UNL     1      28.467 -27.881 -30.509  0.00  0.00    -0.062 A 
ATOM     20  C   UNL     1      28.945 -28.565 -31.623  0.00  0.00    -0.061 A 
ATOM     21  C   UNL     1      29.625 -29.776 -31.461  0.00  0.00    -0.053 A 
ENDBRANCH  13  16
ENDBRANCH   8  10
ENDBRANCH   4   8
BRANCH   1  22
ATOM     22  C   UNL     1      37.685 -35.201 -31.819  0.00  0.00    +0.024 C 
BRANCH  22  26
ATOM     23  C   UNL     1      41.024 -37.292 -30.045  0.00  0.00    -0.062 A 
ATOM     24  C   UNL     1      39.722 -37.584 -29.640  0.00  0.00    -0.061 A 
ATOM     25  C   UNL     1      38.645 -36.908 -30.213  0.00  0.00    -0.057 A 
ATOM     26  C   UNL     1      38.857 -35.930 -31.196  0.00  0.00    -0.033 A 
ATOM     27  C   UNL     1      40.171 -35.645 -31.596  0.00  0.00    -0.057 A 
ATOM     28  C   UNL     1      41.248 -36.324 -31.021  0.00  0.00    -0.061 A 
ENDBRANCH  22  26
ENDBRANCH   1  22
TORSDOF 5
ENDMDL
MODEL 15
REMARK VINA RESULT:    -6.734     27.962     31.333
REMARK INTER + INTRA:          -9.489
REMARK INTER:                  -8.775
REMARK INTRA:                  -0.714
REMARK UNBOUND:                -0.787
REMARK  Name = cpd256.pdb
REMARK  5 active torsions:
REMARK  status: ('A' for Active; 'I' for Inactive)
REMARK    1  A    between atoms: C_4  and  C_5
REMARK    2  A    between atoms: C_5  and  N_6
REMARK    3  A    between atoms: C_9  and  N_10
REMARK    4  A    between atoms: N_10  and  C_11
REMARK    5  A    between atoms: C_14  and  C_15
REMARK                            x       y       z     vdW  Elec       q    Type
REMARK                         _______ _______ _______ _____ _____    ______ ____
ROOT
ATOM      1  N   UNL     1      55.489 -35.495 -50.620  0.00  0.00    -0.298 N 
ATOM      2  C   UNL     1      56.254 -34.611 -51.518  0.00  0.00    +0.001 C 
ATOM      3  C   UNL     1      55.679 -34.533 -52.937  0.00  0.00    -0.022 C 
ATOM      4  C   UNL     1      54.165 -34.747 -52.920  0.00  0.00    +0.024 C 
ATOM      5  C   UNL     1      53.838 -36.128 -52.325  0.00  0.00    -0.022 C 
ATOM      6  C   UNL     1      54.909 -36.623 -51.347  0.00  0.00    +0.001 C 
ATOM      7  H   UNL     1      54.719 -34.945 -50.239  0.00  0.00    +0.000 HD
ENDROOT
BRANCH   4   8
ATOM      8  N   UNL     1      53.596 -34.675 -54.275  0.00  0.00    -0.325 N 
ATOM      9  H   UNL     1      53.863 -35.305 -54.983  0.00  0.00    +0.000 HD
BRANCH   8  10
ATOM     10  C   UNL     1      52.657 -33.667 -54.502  0.00  0.00    +0.141 A 
ATOM     11  C   UNL     1      52.794 -32.737 -55.517  0.00  0.00    -0.018 A 
ATOM     12  C   UNL     1      51.818 -31.753 -55.687  0.00  0.00    -0.031 A 
ATOM     13  C   UNL     1      50.725 -31.721 -54.831  0.00  0.00    +0.093 A 
ATOM     14  N   UNL     1      50.631 -32.630 -53.837  0.00  0.00    -0.147 NA
ATOM     15  N   UNL     1      51.604 -33.599 -53.669  0.00  0.00    -0.134 NA
BRANCH  13  16
ATOM     16  C   UNL     1      49.636 -30.729 -54.924  0.00  0.00    +0.002 A 
ATOM     17  C   UNL     1      48.909 -30.306 -53.794  0.00  0.00    -0.053 A 
ATOM     18  C   UNL     1      47.878 -29.367 -53.900  0.00  0.00    -0.061 A 
ATOM     19  C   UNL     1      47.550 -28.826 -55.138  0.00  0.00    -0.062 A 
ATOM     20  C   UNL     1      48.256 -29.219 -56.272  0.00  0.00    -0.061 A 
ATOM     21  C   UNL     1      49.287 -30.157 -56.162  0.00  0.00    -0.053 A 
ENDBRANCH  13  16
ENDBRANCH   8  10
ENDBRANCH   4   8
BRANCH   1  22
ATOM     22  C   UNL     1      56.303 -35.953 -49.481  0.00  0.00    +0.024 C 
BRANCH  22  26
ATOM     23  C   UNL     1      55.548 -33.760 -45.835  0.00  0.00    -0.062 A 
ATOM     24  C   UNL     1      54.937 -34.994 -46.046  0.00  0.00    -0.061 A 
ATOM     25  C   UNL     1      55.180 -35.702 -47.224  0.00  0.00    -0.057 A 
ATOM     26  C   UNL     1      56.037 -35.180 -48.205  0.00  0.00    -0.033 A 
ATOM     27  C   UNL     1      56.647 -33.938 -47.981  0.00  0.00    -0.057 A 
ATOM     28  C   UNL     1      56.401 -33.232 -46.802  0.00  0.00    -0.061 A 
ENDBRANCH  22  26
ENDBRANCH   1  22
TORSDOF 5
ENDMDL
MODEL 16
REMARK VINA RESULT:    -6.705      5.684      8.347
REMARK INTER + INTRA:          -9.452
REMARK INTER:                  -8.867
REMARK INTRA:                  -0.585
REMARK UNBOUND:                -0.787
REMARK  Name = cpd256.pdb
REMARK  5 active torsions:
REMARK  status: ('A' for Active; 'I' for Inactive)
REMARK    1  A    between atoms: C_4  and  C_5
REMARK    2  A    between atoms: C_5  and  N_6
REMARK    3  A    between atoms: C_9  and  N_10
REMARK    4  A    between atoms: N_10  and  C_11
REMARK    5  A    between atoms: C_14  and  C_15
REMARK                            x       y       z     vdW  Elec       q    Type
REMARK                         _______ _______ _______ _____ _____    ______ ____
ROOT
ATOM      1  N   UNL     1      30.980 -32.976 -29.621  0.00  0.00    -0.298 N 
ATOM      2  C   UNL     1      32.048 -33.114 -28.614  0.00  0.00    +0.001 C 
ATOM      3  C   UNL     1      32.801 -34.446 -28.697  0.00  0.00    -0.022 C 
ATOM      4  C   UNL     1      32.811 -34.974 -30.132  0.00  0.00    +0.024 C 
ATOM      5  C   UNL     1      31.367 -35.186 -30.621  0.00  0.00    -0.022 C 
ATOM      6  C   UNL     1      30.361 -34.266 -29.922  0.00  0.00    +0.001 C 
ATOM      7  H   UNL     1      31.415 -32.636 -30.478  0.00  0.00    +0.000 HD
ENDROOT
BRANCH   4   8
ATOM      8  N   UNL     1      33.530 -36.253 -30.230  0.00  0.00    -0.325 N 
ATOM      9  H   UNL     1      33.067 -37.117 -30.136  0.00  0.00    +0.000 HD
BRANCH   8  10
ATOM     10  C   UNL     1      34.905 -36.177 -30.463  0.00  0.00    +0.141 A 
ATOM     11  C   UNL     1      35.572 -34.972 -30.599  0.00  0.00    -0.018 A 
ATOM     12  C   UNL     1      36.948 -34.969 -30.834  0.00  0.00    -0.031 A 
ATOM     13  C   UNL     1      37.627 -36.175 -30.930  0.00  0.00    +0.093 A 
ATOM     14  N   UNL     1      36.944 -37.335 -30.812  0.00  0.00    -0.147 NA
ATOM     15  N   UNL     1      35.580 -37.333 -30.586  0.00  0.00    -0.134 NA
BRANCH  13  16
ATOM     16  C   UNL     1      39.079 -36.286 -31.171  0.00  0.00    +0.002 A 
ATOM     17  C   UNL     1      39.704 -35.681 -32.278  0.00  0.00    -0.053 A 
ATOM     18  C   UNL     1      41.081 -35.799 -32.493  0.00  0.00    -0.061 A 
ATOM     19  C   UNL     1      41.868 -36.522 -31.603  0.00  0.00    -0.062 A 
ATOM     20  C   UNL     1      41.280 -37.125 -30.495  0.00  0.00    -0.061 A 
ATOM     21  C   UNL     1      39.903 -37.005 -30.282  0.00  0.00    -0.053 A 
ENDBRANCH  13  16
ENDBRANCH   8  10
ENDBRANCH   4   8
BRANCH   1  22
ATOM     22  C   UNL     1      29.974 -31.979 -29.217  0.00  0.00    +0.024 C 
BRANCH  22  26
ATOM     23  C   UNL     1      28.983 -29.191 -32.366  0.00  0.00    -0.062 A 
ATOM     24  C   UNL     1      29.672 -28.753 -31.236  0.00  0.00    -0.061 A 
ATOM     25  C   UNL     1      29.991 -29.653 -30.219  0.00  0.00    -0.057 A 
ATOM     26  C   UNL     1      29.622 -31.003 -30.320  0.00  0.00    -0.033 A 
ATOM     27  C   UNL     1      28.930 -31.433 -31.462  0.00  0.00    -0.057 A 
ATOM     28  C   UNL     1      28.613 -30.529 -32.478  0.00  0.00    -0.061 A 
ENDBRANCH  22  26
ENDBRANCH   1  22
TORSDOF 5
ENDMDL
MODEL 17
REMARK VINA RESULT:    -6.642      1.691      2.200
REMARK INTER + INTRA:          -9.370
REMARK INTER:                  -9.275
REMARK INTRA:                  -0.095
REMARK UNBOUND:                -0.787
REMARK  Name = cpd256.pdb
REMARK  5 active torsions:
REMARK  status: ('A' for Active; 'I' for Inactive)
REMARK    1  A    between atoms: C_4  and  C_5
REMARK    2  A    between atoms: C_5  and  N_6
REMARK    3  A    between atoms: C_9  and  N_10
REMARK    4  A    between atoms: N_10  and  C_11
REMARK    5  A    between atoms: C_14  and  C_15
REMARK                            x       y       z     vdW  Elec       q    Type
REMARK                         _______ _______ _______ _____ _____    ______ ____
ROOT
ATOM      1  N   UNL     1      32.264 -37.754 -25.550  0.00  0.00    -0.298 N 
ATOM      2  C   UNL     1      33.430 -36.987 -26.025  0.00  0.00    +0.001 C 
ATOM      3  C   UNL     1      34.382 -37.802 -26.908  0.00  0.00    -0.022 C 
ATOM      4  C   UNL     1      33.620 -38.890 -27.666  0.00  0.00    +0.024 C 
ATOM      5  C   UNL     1      32.929 -39.837 -26.669  0.00  0.00    -0.022 C 
ATOM      6  C   UNL     1      32.602 -39.160 -25.334  0.00  0.00    +0.001 C 
ATOM      7  H   UNL     1      31.558 -37.716 -26.285  0.00  0.00    +0.000 HD
ENDROOT
BRANCH   4   8
ATOM      8  N   UNL     1      34.519 -39.682 -28.519  0.00  0.00    -0.325 N 
ATOM      9  H   UNL     1      34.311 -40.612 -28.768  0.00  0.00    +0.000 HD
BRANCH   8  10
ATOM     10  C   UNL     1      35.682 -39.046 -28.955  0.00  0.00    +0.141 A 
ATOM     11  C   UNL     1      36.941 -39.404 -28.506  0.00  0.00    -0.018 A 
ATOM     12  C   UNL     1      38.063 -38.724 -28.982  0.00  0.00    -0.031 A 
ATOM     13  C   UNL     1      37.899 -37.694 -29.899  0.00  0.00    +0.093 A 
ATOM     14  N   UNL     1      36.655 -37.354 -30.302  0.00  0.00    -0.147 NA
ATOM     15  N   UNL     1      35.547 -38.027 -29.822  0.00  0.00    -0.134 NA
BRANCH  13  16
ATOM     16  C   UNL     1      39.014 -36.913 -30.470  0.00  0.00    +0.002 A 
ATOM     17  C   UNL     1      38.825 -35.992 -31.518  0.00  0.00    -0.053 A 
ATOM     18  C   UNL     1      39.894 -35.262 -32.048  0.00  0.00    -0.061 A 
ATOM     19  C   UNL     1      41.177 -35.434 -31.542  0.00  0.00    -0.062 A 
ATOM     20  C   UNL     1      41.394 -36.332 -30.501  0.00  0.00    -0.061 A 
ATOM     21  C   UNL     1      40.323 -37.059 -29.971  0.00  0.00    -0.053 A 
ENDBRANCH  13  16
ENDBRANCH   8  10
ENDBRANCH   4   8
BRANCH   1  22
ATOM     22  C   UNL     1      31.670 -37.153 -24.344  0.00  0.00    +0.024 C 
BRANCH  22  26
ATOM     23  C   UNL     1      33.939 -37.950 -20.754  0.00  0.00    -0.062 A 
ATOM     24  C   UNL     1      32.687 -38.536 -20.933  0.00  0.00    -0.061 A 
ATOM     25  C   UNL     1      31.954 -38.277 -22.092  0.00  0.00    -0.057 A 
ATOM     26  C   UNL     1      32.465 -37.428 -23.084  0.00  0.00    -0.033 A 
ATOM     27  C   UNL     1      33.727 -36.846 -22.894  0.00  0.00    -0.057 A 
ATOM     28  C   UNL     1      34.458 -37.106 -21.733  0.00  0.00    -0.061 A 
ENDBRANCH  22  26
ENDBRANCH   1  22
TORSDOF 5
ENDMDL
MODEL 18
REMARK VINA RESULT:    -6.497      6.754      9.355
REMARK INTER + INTRA:          -9.183
REMARK INTER:                  -8.389
REMARK INTRA:                  -0.794
REMARK UNBOUND:                -0.787
REMARK  Name = cpd256.pdb
REMARK  5 active torsions:
REMARK  status: ('A' for Active; 'I' for Inactive)
REMARK    1  A    between atoms: C_4  and  C_5
REMARK    2  A    between atoms: C_5  and  N_6
REMARK    3  A    between atoms: C_9  and  N_10
REMARK    4  A    between atoms: N_10  and  C_11
REMARK    5  A    between atoms: C_14  and  C_15
REMARK                            x       y       z     vdW  Elec       q    Type
REMARK                         _______ _______ _______ _____ _____    ______ ____
ROOT
ATOM      1  N   UNL     1      36.634 -38.796 -29.353  0.00  0.00    -0.298 N 
ATOM      2  C   UNL     1      36.626 -40.246 -29.086  0.00  0.00    +0.001 C 
ATOM      3  C   UNL     1      35.298 -40.926 -29.437  0.00  0.00    -0.022 C 
ATOM      4  C   UNL     1      34.600 -40.193 -30.584  0.00  0.00    +0.024 C 
ATOM      5  C   UNL     1      34.322 -38.734 -30.179  0.00  0.00    -0.022 C 
ATOM      6  C   UNL     1      35.314 -38.206 -29.138  0.00  0.00    +0.001 C 
ATOM      7  H   UNL     1      36.871 -38.671 -30.337  0.00  0.00    +0.000 HD
ENDROOT
BRANCH   4   8
ATOM      8  N   UNL     1      33.323 -40.833 -30.933  0.00  0.00    -0.325 N 
ATOM      9  H   UNL     1      32.623 -40.994 -30.260  0.00  0.00    +0.000 HD
BRANCH   8  10
ATOM     10  C   UNL     1      33.157 -41.200 -32.270  0.00  0.00    +0.141 A 
ATOM     11  C   UNL     1      34.205 -41.642 -33.057  0.00  0.00    -0.018 A 
ATOM     12  C   UNL     1      33.970 -41.990 -34.388  0.00  0.00    -0.031 A 
ATOM     13  C   UNL     1      32.685 -41.885 -34.904  0.00  0.00    +0.093 A 
ATOM     14  N   UNL     1      31.686 -41.430 -34.116  0.00  0.00    -0.147 NA
ATOM     15  N   UNL     1      31.927 -41.080 -32.800  0.00  0.00    -0.134 NA
BRANCH  13  16
ATOM     16  C   UNL     1      32.324 -42.230 -36.293  0.00  0.00    +0.002 A 
ATOM     17  C   UNL     1      32.023 -41.247 -37.256  0.00  0.00    -0.053 A 
ATOM     18  C   UNL     1      31.680 -41.592 -38.567  0.00  0.00    -0.061 A 
ATOM     19  C   UNL     1      31.634 -42.928 -38.949  0.00  0.00    -0.062 A 
ATOM     20  C   UNL     1      31.935 -43.921 -38.022  0.00  0.00    -0.061 A 
ATOM     21  C   UNL     1      32.278 -43.574 -36.711  0.00  0.00    -0.053 A 
ENDBRANCH  13  16
ENDBRANCH   8  10
ENDBRANCH   4   8
BRANCH   1  22
ATOM     22  C   UNL     1      37.667 -38.102 -28.564  0.00  0.00    +0.024 C 
BRANCH  22  26
ATOM     23  C   UNL     1      41.021 -36.763 -30.936  0.00  0.00    -0.062 A 
ATOM     24  C   UNL     1      39.722 -36.431 -31.315  0.00  0.00    -0.061 A 
ATOM     25  C   UNL     1      38.639 -36.865 -30.549  0.00  0.00    -0.057 A 
ATOM     26  C   UNL     1      38.844 -37.637 -29.396  0.00  0.00    -0.033 A 
ATOM     27  C   UNL     1      40.156 -37.963 -29.024  0.00  0.00    -0.057 A 
ATOM     28  C   UNL     1      41.238 -37.528 -29.792  0.00  0.00    -0.061 A 
ENDBRANCH  22  26
ENDBRANCH   1  22
TORSDOF 5
ENDMDL
MODEL 19
REMARK VINA RESULT:    -6.492     27.752     33.219
REMARK INTER + INTRA:          -9.176
REMARK INTER:                  -8.417
REMARK INTRA:                  -0.759
REMARK UNBOUND:                -0.787
REMARK  Name = cpd256.pdb
REMARK  5 active torsions:
REMARK  status: ('A' for Active; 'I' for Inactive)
REMARK    1  A    between atoms: C_4  and  C_5
REMARK    2  A    between atoms: C_5  and  N_6
REMARK    3  A    between atoms: C_9  and  N_10
REMARK    4  A    between atoms: N_10  and  C_11
REMARK    5  A    between atoms: C_14  and  C_15
REMARK                            x       y       z     vdW  Elec       q    Type
REMARK                         _______ _______ _______ _____ _____    ______ ____
ROOT
ATOM      1  N   UNL     1      56.167 -35.368 -50.538  0.00  0.00    -0.298 N 
ATOM      2  C   UNL     1      56.955 -35.936 -51.647  0.00  0.00    +0.001 C 
ATOM      3  C   UNL     1      56.614 -35.331 -53.014  0.00  0.00    -0.022 C 
ATOM      4  C   UNL     1      56.139 -33.885 -52.864  0.00  0.00    +0.024 C 
ATOM      5  C   UNL     1      54.887 -33.836 -51.970  0.00  0.00    -0.022 C 
ATOM      6  C   UNL     1      54.821 -34.998 -50.974  0.00  0.00    +0.001 C 
ATOM      7  H   UNL     1      56.639 -34.515 -50.238  0.00  0.00    +0.000 HD
ENDROOT
BRANCH   4   8
ATOM      8  N   UNL     1      55.807 -33.289 -54.166  0.00  0.00    -0.325 N 
ATOM      9  H   UNL     1      55.284 -33.778 -54.842  0.00  0.00    +0.000 HD
BRANCH   8  10
ATOM     10  C   UNL     1      56.274 -31.993 -54.394  0.00  0.00    +0.141 A 
ATOM     11  C   UNL     1      55.519 -30.869 -54.108  0.00  0.00    -0.018 A 
ATOM     12  C   UNL     1      56.046 -29.602 -54.363  0.00  0.00    -0.031 A 
ATOM     13  C   UNL     1      57.320 -29.488 -54.903  0.00  0.00    +0.093 A 
ATOM     14  N   UNL     1      58.024 -30.605 -55.190  0.00  0.00    -0.147 NA
ATOM     15  N   UNL     1      57.494 -31.858 -54.941  0.00  0.00    -0.134 NA
BRANCH  13  16
ATOM     16  C   UNL     1      57.974 -28.200 -55.207  0.00  0.00    +0.002 A 
ATOM     17  C   UNL     1      59.136 -27.773 -54.536  0.00  0.00    -0.053 A 
ATOM     18  C   UNL     1      59.742 -26.548 -54.835  0.00  0.00    -0.061 A 
ATOM     19  C   UNL     1      59.201 -25.721 -55.814  0.00  0.00    -0.062 A 
ATOM     20  C   UNL     1      58.058 -26.121 -56.500  0.00  0.00    -0.061 A 
ATOM     21  C   UNL     1      57.455 -27.347 -56.200  0.00  0.00    -0.053 A 
ENDBRANCH  13  16
ENDBRANCH   8  10
ENDBRANCH   4   8
BRANCH   1  22
ATOM     22  C   UNL     1      56.126 -36.274 -49.378  0.00  0.00    +0.024 C 
BRANCH  22  26
ATOM     23  C   UNL     1      55.148 -34.280 -45.671  0.00  0.00    -0.062 A 
ATOM     24  C   UNL     1      54.614 -35.537 -45.950  0.00  0.00    -0.061 A 
ATOM     25  C   UNL     1      54.929 -36.180 -47.147  0.00  0.00    -0.057 A 
ATOM     26  C   UNL     1      55.781 -35.571 -48.081  0.00  0.00    -0.033 A 
ATOM     27  C   UNL     1      56.314 -34.307 -47.789  0.00  0.00    -0.057 A 
ATOM     28  C   UNL     1      55.997 -33.666 -46.590  0.00  0.00    -0.061 A 
ENDBRANCH  22  26
ENDBRANCH   1  22
TORSDOF 5
ENDMDL
MODEL 20
REMARK VINA RESULT:    -6.465     27.783     30.244
REMARK INTER + INTRA:          -9.142
REMARK INTER:                  -8.398
REMARK INTRA:                  -0.744
REMARK UNBOUND:                -0.787
REMARK  Name = cpd256.pdb
REMARK  5 active torsions:
REMARK  status: ('A' for Active; 'I' for Inactive)
REMARK    1  A    between atoms: C_4  and  C_5
REMARK    2  A    between atoms: C_5  and  N_6
REMARK    3  A    between atoms: C_9  and  N_10
REMARK    4  A    between atoms: N_10  and  C_11
REMARK    5  A    between atoms: C_14  and  C_15
REMARK                            x       y       z     vdW  Elec       q    Type
REMARK                         _______ _______ _______ _____ _____    ______ ____
ROOT
ATOM      1  N   UNL     1      55.273 -35.885 -50.510  0.00  0.00    -0.298 N 
ATOM      2  C   UNL     1      55.403 -34.696 -51.373  0.00  0.00    +0.001 C 
ATOM      3  C   UNL     1      54.697 -34.840 -52.727  0.00  0.00    -0.022 C 
ATOM      4  C   UNL     1      53.489 -35.770 -52.611  0.00  0.00    +0.024 C 
ATOM      5  C   UNL     1      53.943 -37.161 -52.134  0.00  0.00    -0.022 C 
ATOM      6  C   UNL     1      55.227 -37.115 -51.300  0.00  0.00    +0.001 C 
ATOM      7  H   UNL     1      54.385 -35.803 -50.016  0.00  0.00    +0.000 HD
ENDROOT
BRANCH   4   8
ATOM      8  N   UNL     1      52.799 -35.920 -53.901  0.00  0.00    -0.325 N 
ATOM      9  H   UNL     1      53.296 -36.025 -54.745  0.00  0.00    +0.000 HD
BRANCH   8  10
ATOM     10  C   UNL     1      51.404 -35.906 -53.866  0.00  0.00    +0.141 A 
ATOM     11  C   UNL     1      50.646 -37.064 -53.877  0.00  0.00    -0.018 A 
ATOM     12  C   UNL     1      49.253 -36.977 -53.843  0.00  0.00    -0.031 A 
ATOM     13  C   UNL     1      48.648 -35.729 -53.800  0.00  0.00    +0.093 A 
ATOM     14  N   UNL     1      49.415 -34.616 -53.810  0.00  0.00    -0.147 NA
ATOM     15  N   UNL     1      50.794 -34.708 -53.851  0.00  0.00    -0.134 NA
BRANCH  13  16
ATOM     16  C   UNL     1      47.187 -35.523 -53.756  0.00  0.00    +0.002 A 
ATOM     17  C   UNL     1      46.294 -36.329 -54.489  0.00  0.00    -0.053 A 
ATOM     18  C   UNL     1      44.912 -36.118 -54.438  0.00  0.00    -0.061 A 
ATOM     19  C   UNL     1      44.389 -35.097 -53.651  0.00  0.00    -0.062 A 
ATOM     20  C   UNL     1      45.247 -34.290 -52.910  0.00  0.00    -0.061 A 
ATOM     21  C   UNL     1      46.628 -34.504 -52.961  0.00  0.00    -0.053 A 
ENDBRANCH  13  16
ENDBRANCH   8  10
ENDBRANCH   4   8
BRANCH   1  22
ATOM     22  C   UNL     1      56.336 -35.939 -49.492  0.00  0.00    +0.024 C 
BRANCH  22  26
ATOM     23  C   UNL     1      55.351 -33.804 -45.867  0.00  0.00    -0.062 A 
ATOM     24  C   UNL     1      54.733 -35.021 -46.150  0.00  0.00    -0.061 A 
ATOM     25  C   UNL     1      55.050 -35.709 -47.322  0.00  0.00    -0.057 A 
ATOM     26  C   UNL     1      55.989 -35.187 -48.224  0.00  0.00    -0.033 A 
ATOM     27  C   UNL     1      56.605 -33.963 -47.928  0.00  0.00    -0.057 A 
ATOM     28  C   UNL     1      56.286 -33.275 -46.755  0.00  0.00    -0.061 A 
ENDBRANCH  22  26
ENDBRANCH   1  22
TORSDOF 5
ENDMDL
