@<TRIPOS>MOLECULE
*****
 26 29 0 0 0
SMALL
GASTEIGER

@<TRIPOS>ATOM
      1 C          -0.8660   -0.5000    0.0000 C.ar    1  UNL1       -0.0000
      2 C          -1.7321   -0.0000    0.0000 C.ar    1  UNL1       -0.0003
      3 C          -1.7321    1.0000    0.0000 C.ar    1  UNL1       -0.0029
      4 C          -0.8660    1.5000    0.0000 C.ar    1  UNL1       -0.0061
      5 C          -0.8660    2.5000    0.0000 C.3     1  UNL1        0.0991
      6 N          -1.7321    3.0000    0.0000 N.3     1  UNL1       -0.2688
      7 C          -2.5981    2.5000    0.0000 C.3     1  UNL1        0.0741
      8 C          -3.4641    3.0000    0.0000 C.3     1  UNL1        0.0390
      9 C          -3.4641    4.0000    0.0000 C.3     1  UNL1        0.0969
     10 N          -4.3301    4.5000    0.0000 N.pl3   1  UNL1       -0.2205
     11 C          -5.1962    4.0000    0.0000 C.ar    1  UNL1        0.1692
     12 C          -5.1962    3.0000    0.0000 C.ar    1  UNL1        0.0392
     13 C          -6.0622    2.5000    0.0000 C.ar    1  UNL1        0.0239
     14 C          -6.9282    3.0000    0.0000 C.ar    1  UNL1        0.1030
     15 C          -7.7942    2.5000    0.0000 C.ar    1  UNL1        0.0194
     16 C          -7.7942    1.5000    0.0000 C.ar    1  UNL1        0.0016
     17 C          -8.6603    1.0000    0.0000 C.ar    1  UNL1        0.0000
     18 C          -9.5263    1.5000    0.0000 C.ar    1  UNL1        0.0000
     19 C          -9.5263    2.5000    0.0000 C.ar    1  UNL1        0.0000
     20 C          -8.6603    3.0000    0.0000 C.ar    1  UNL1        0.0016
     21 N          -6.9282    4.0000    0.0000 N.ar    1  UNL1       -0.1467
     22 N          -6.0622    4.5000    0.0000 N.ar    1  UNL1       -0.1314
     23 C          -2.5981    4.5000    0.0000 C.3     1  UNL1        0.0390
     24 C          -1.7321    4.0000    0.0000 C.3     1  UNL1        0.0741
     25 C          -0.0000    1.0000    0.0000 C.ar    1  UNL1       -0.0029
     26 C           0.0000    0.0000    0.0000 C.ar    1  UNL1       -0.0003
@<TRIPOS>BOND
     1     1     2   ar
     2     2     3   ar
     3     3     4   ar
     4     4     5    1
     5     5     6    1
     6     6     7    1
     7     7     8    1
     8     8     9    1
     9     9    10    1
    10    10    11    1
    11    11    12   ar
    12    12    13   ar
    13    13    14   ar
    14    14    15    1
    15    15    16   ar
    16    16    17   ar
    17    17    18   ar
    18    18    19   ar
    19    19    20   ar
    20    15    20   ar
    21    14    21   ar
    22    21    22   ar
    23    11    22   ar
    24     9    23    1
    25    23    24    1
    26     6    24    1
    27     4    25   ar
    28    25    26   ar
    29     1    26   ar
