REMARK  Name = cpd365.pdb
REMARK  14 active torsions:
REMARK  status: ('A' for Active; 'I' for Inactive)
REMARK    1  A    between atoms: C_2  and  C_3
REMARK    2  A    between atoms: C_2  and  C_4
REMARK    3  A    between atoms: C_7  and  C_8
REMARK    4  A    between atoms: C_14  and  C_15
REMARK    5  A    between atoms: C_18  and  O_19
REMARK    6  A    between atoms: O_19  and  C_20
REMARK    7  A    between atoms: C_20  and  C_22
REMARK    8  A    between atoms: C_29  and  C_30
REMARK    9  A    between atoms: C_29  and  C_31
REMARK   10  A    between atoms: C_35  and  C_36
REMARK   11  A    between atoms: C_37  and  C_38
REMARK   12  A    between atoms: C_40  and  O_41
REMARK   13  A    between atoms: O_41  and  C_42
REMARK   14  A    between atoms: C_42  and  C_44
REMARK                            x       y       z     vdW  Elec       q    Type
REMARK                         _______ _______ _______ _____ _____    ______ ____
ROOT
ATOM      1  C   UNL A   1       0.124   2.796  -1.207  0.00  0.00    -0.017 C 
ATOM      2  C   UNL A   1       1.688   2.780  -1.241  0.00  0.00    -0.046 C 
ATOM      3  C   UNL A   1       2.158   1.605  -0.360  0.00  0.00    -0.043 C 
ATOM      4  C   UNL A   1       0.962   0.641  -0.328  0.00  0.00    +0.009 C 
ATOM      5  C   UNL A   1       0.968  -0.191  -1.628  0.00  0.00    -0.056 C 
ATOM      6  C   UNL A   1      -0.193   1.648  -0.206  0.00  0.00    -0.022 C 
ATOM      7  C   UNL A   1      -1.662   0.960   0.000  0.00  0.00    -0.031 C 
ATOM      8  C   UNL A   1      -2.374   2.052   0.904  0.00  0.00    -0.049 C 
ATOM      9  C   UNL A   1      -3.815   2.243   0.507  0.00  0.00    -0.049 C 
ATOM     10  C   UNL A   1      -4.468   0.908   0.732  0.00  0.00    -0.029 C 
ATOM     11  C   UNL A   1      -6.013   0.813   0.220  0.00  0.00    -0.025 C 
ATOM     12  C   UNL A   1      -6.280   1.779  -0.959  0.00  0.00    -0.059 C 
ATOM     13  C   UNL A   1      -6.938   1.185   1.401  0.00  0.00    -0.044 C 
ATOM     14  C   UNL A   1      -8.433   1.134   1.092  0.00  0.00    -0.015 C 
ATOM     15  C   UNL A   1      -8.919   0.051   0.112  0.00  0.00    +0.109 C 
ATOM     16  C   UNL A   1      -7.896  -1.064  -0.283  0.00  0.00    +0.006 C 
ATOM     17  C   UNL A   1      -8.130  -2.237   0.726  0.00  0.00    -0.056 C 
ATOM     18  C   UNL A   1      -8.225  -1.660  -1.671  0.00  0.00    -0.056 C 
ATOM     19  C   UNL A   1      -6.371  -0.653  -0.154  0.00  0.00    -0.027 C 
ATOM     20  C   UNL A   1      -5.438  -1.183  -1.248  0.00  0.00    -0.049 C 
ATOM     21  C   UNL A   1      -4.022  -0.622  -1.169  0.00  0.00    -0.047 C 
ATOM     22  C   UNL A   1      -3.484  -0.282   0.273  0.00  0.00    -0.023 C 
ATOM     23  C   UNL A   1      -3.761  -1.363   1.388  0.00  0.00    -0.059 C 
ATOM     24  C   UNL A   1      -1.662   0.000   0.000  0.00  0.00    -0.020 C 
ATOM     25  C   UNL A   1      -1.662  -1.976   0.000  0.00  0.00    -0.059 C 
ATOM     26  C   UNL A   1      -0.657  -0.253   1.387  0.00  0.00    -0.009 C 
ATOM     27  C   UNL A   1       0.851  -0.209   0.961  0.00  0.00    +0.110 C 
ENDROOT
BRANCH   1  29
ATOM     28  C   UNL A   1      -0.075   2.525  -3.747  0.00  0.00    -0.099 C 
ATOM     29  C   UNL A   1      -0.598   2.850  -2.552  0.00  0.00    -0.076 C 
ATOM     30  C   UNL A   1      -1.987   3.446  -2.544  0.00  0.00    -0.044 C 
ENDBRANCH   1  29
BRANCH  15  31
ATOM     31  O   UNL A   1      -9.415   0.758  -1.066  0.00  0.00    -0.457 OA
BRANCH  31  32
ATOM     32  C   UNL A   1     -10.598   0.556  -1.698  0.00  0.00    +0.339 C 
ATOM     33  O   UNL A   1     -10.834   1.032  -2.801  0.00  0.00    -0.245 OA
BRANCH  32  34
ATOM     34  C   UNL A   1     -11.616  -0.296  -1.053  0.00  0.00    +0.059 A 
ATOM     35  C   UNL A   1     -12.007  -1.478  -1.692  0.00  0.00    -0.047 A 
ATOM     36  C   UNL A   1     -12.971  -2.300  -1.106  0.00  0.00    -0.047 A 
ATOM     37  C   UNL A   1     -13.558  -1.920   0.101  0.00  0.00    +0.018 A 
ATOM     38 BR   UNL A   1     -14.858  -3.036   0.899  0.00  0.00    -0.050 Br
ATOM     39  C   UNL A   1     -13.199  -0.721   0.722  0.00  0.00    -0.047 A 
ATOM     40  C   UNL A   1     -12.232   0.102   0.139  0.00  0.00    -0.047 A 
ENDBRANCH  32  34
ENDBRANCH  31  32
ENDBRANCH  15  31
BRANCH  27  41
ATOM     41  O   UNL A   1       1.403  -1.514   0.728  0.00  0.00    -0.457 OA
BRANCH  41  42
ATOM     42  C   UNL A   1       1.692  -2.269   1.813  0.00  0.00    +0.339 C 
ATOM     43  O   UNL A   1       1.480  -1.976   2.978  0.00  0.00    -0.245 OA
BRANCH  42  44
ATOM     44  C   UNL A   1       2.287  -3.559   1.375  0.00  0.00    +0.059 A 
ATOM     45  C   UNL A   1       2.873  -3.716   0.110  0.00  0.00    -0.047 A 
ATOM     46  C   UNL A   1       3.431  -4.942  -0.261  0.00  0.00    -0.047 A 
ATOM     47  C   UNL A   1       3.402  -6.012   0.632  0.00  0.00    +0.018 A 
ATOM     48 BR   UNL A   1       4.154  -7.672   0.128  0.00  0.00    -0.050 Br
ATOM     49  C   UNL A   1       2.826  -5.867   1.894  0.00  0.00    -0.047 A 
ATOM     50  C   UNL A   1       2.272  -4.639   2.267  0.00  0.00    -0.047 A 
ENDBRANCH  42  44
ENDBRANCH  41  42
ENDBRANCH  27  41
TORSDOF 7
