MODEL 1
REMARK VINA RESULT:   -10.239      0.000      0.000
REMARK INTER + INTRA:         -16.835
REMARK INTER:                 -14.429
REMARK INTRA:                  -2.406
REMARK UNBOUND:                -2.406
REMARK  Name = cpd365.pdb
REMARK  14 active torsions:
REMARK  status: ('A' for Active; 'I' for Inactive)
REMARK    1  A    between atoms: C_2  and  C_3
REMARK    2  A    between atoms: C_2  and  C_4
REMARK    3  A    between atoms: C_7  and  C_8
REMARK    4  A    between atoms: C_14  and  C_15
REMARK    5  A    between atoms: C_18  and  O_19
REMARK    6  A    between atoms: O_19  and  C_20
REMARK    7  A    between atoms: C_20  and  C_22
REMARK    8  A    between atoms: C_29  and  C_30
REMARK    9  A    between atoms: C_29  and  C_31
REMARK   10  A    between atoms: C_35  and  C_36
REMARK   11  A    between atoms: C_37  and  C_38
REMARK   12  A    between atoms: C_40  and  O_41
REMARK   13  A    between atoms: O_41  and  C_42
REMARK   14  A    between atoms: C_42  and  C_44
REMARK                            x       y       z     vdW  Elec       q    Type
REMARK                         _______ _______ _______ _____ _____    ______ ____
ROOT
ATOM      1  C   UNL A   1      34.134 -38.741 -29.595  0.00  0.00    -0.017 C 
ATOM      2  C   UNL A   1      35.416 -39.634 -29.511  0.00  0.00    -0.046 C 
ATOM      3  C   UNL A   1      36.568 -38.852 -30.173  0.00  0.00    -0.043 C 
ATOM      4  C   UNL A   1      36.140 -37.379 -30.083  0.00  0.00    +0.009 C 
ATOM      5  C   UNL A   1      36.460 -36.861 -28.665  0.00  0.00    -0.056 C 
ATOM      6  C   UNL A   1      34.642 -37.513 -30.403  0.00  0.00    -0.022 C 
ATOM      7  C   UNL A   1      33.856 -36.086 -30.538  0.00  0.00    -0.031 C 
ATOM      8  C   UNL A   1      32.765 -36.454 -31.630  0.00  0.00    -0.049 C 
ATOM      9  C   UNL A   1      31.433 -35.824 -31.313  0.00  0.00    -0.049 C 
ATOM     10  C   UNL A   1      31.681 -34.342 -31.336  0.00  0.00    -0.029 C 
ATOM     11  C   UNL A   1      30.412 -33.434 -30.863  0.00  0.00    -0.025 C 
ATOM     12  C   UNL A   1      29.508 -34.199 -29.866  0.00  0.00    -0.059 C 
ATOM     13  C   UNL A   1      29.587 -33.064 -32.116  0.00  0.00    -0.044 C 
ATOM     14  C   UNL A   1      28.358 -32.197 -31.848  0.00  0.00    -0.015 C 
ATOM     15  C   UNL A   1      28.456 -31.155 -30.719  0.00  0.00    +0.109 C 
ATOM     16  C   UNL A   1      29.874 -30.889 -30.116  0.00  0.00    +0.006 C 
ATOM     17  C   UNL A   1      30.466 -29.688 -30.926  0.00  0.00    -0.056 C 
ATOM     18  C   UNL A   1      29.777 -30.379 -28.660  0.00  0.00    -0.056 C 
ATOM     19  C   UNL A   1      30.903 -32.086 -30.265  0.00  0.00    -0.027 C 
ATOM     20  C   UNL A   1      31.834 -32.322 -29.071  0.00  0.00    -0.049 C 
ATOM     21  C   UNL A   1      32.683 -33.583 -29.198  0.00  0.00    -0.047 C 
ATOM     22  C   UNL A   1      33.102 -34.000 -30.659  0.00  0.00    -0.023 C 
ATOM     23  C   UNL A   1      33.619 -32.836 -31.590  0.00  0.00    -0.059 C 
ATOM     24  C   UNL A   1      34.398 -35.310 -30.381  0.00  0.00    -0.020 C 
ATOM     25  C   UNL A   1      35.514 -33.712 -30.058  0.00  0.00    -0.059 C 
ATOM     26  C   UNL A   1      35.526 -35.523 -31.677  0.00  0.00    -0.009 C 
ATOM     27  C   UNL A   1      36.682 -36.477 -31.219  0.00  0.00    +0.110 C 
ENDROOT
BRANCH   1  29
ATOM     28  C   UNL A   1      32.157 -37.925 -28.184  0.00  0.00    -0.099 C 
ATOM     29  C   UNL A   1      33.354 -38.526 -28.299  0.00  0.00    -0.076 C 
ATOM     30  C   UNL A   1      34.059 -38.913 -27.020  0.00  0.00    -0.044 C 
ENDBRANCH   1  29
BRANCH  15  31
ATOM     31  O   UNL A   1      27.512 -31.579 -29.689  0.00  0.00    -0.457 OA
BRANCH  31  32
ATOM     32  C   UNL A   1      26.355 -30.962 -29.342  0.00  0.00    +0.339 C 
ATOM     33  O   UNL A   1      25.265 -31.502 -29.481  0.00  0.00    -0.245 OA
BRANCH  32  34
ATOM     34  C   UNL A   1      26.415 -29.614 -28.744  0.00  0.00    +0.059 A 
ATOM     35  C   UNL A   1      26.389 -29.495 -27.350  0.00  0.00    -0.047 A 
ATOM     36  C   UNL A   1      26.441 -28.232 -26.758  0.00  0.00    -0.047 A 
ATOM     37  C   UNL A   1      26.489 -27.095 -27.565  0.00  0.00    +0.018 A 
ATOM     38 BR   UNL A   1      26.566 -25.384 -26.765  0.00  0.00    -0.050 Br
ATOM     39  C   UNL A   1      26.474 -27.208 -28.958  0.00  0.00    -0.047 A 
ATOM     40  C   UNL A   1      26.426 -28.472 -29.553  0.00  0.00    -0.047 A 
ENDBRANCH  32  34
ENDBRANCH  31  32
ENDBRANCH  15  31
BRANCH  27  41
ATOM     41  O   UNL A   1      37.843 -35.767 -30.759  0.00  0.00    -0.457 OA
BRANCH  41  42
ATOM     42  C   UNL A   1      38.867 -35.620 -31.630  0.00  0.00    +0.339 C 
ATOM     43  O   UNL A   1      38.921 -34.833 -32.560  0.00  0.00    -0.245 OA
BRANCH  42  44
ATOM     44  C   UNL A   1      39.966 -36.552 -31.264  0.00  0.00    +0.059 A 
ATOM     45  C   UNL A   1      39.976 -37.249 -30.047  0.00  0.00    -0.047 A 
ATOM     46  C   UNL A   1      41.022 -38.124 -29.744  0.00  0.00    -0.047 A 
ATOM     47  C   UNL A   1      42.060 -38.301 -30.657  0.00  0.00    +0.018 A 
ATOM     48 BR   UNL A   1      43.478 -39.483 -30.245  0.00  0.00    -0.050 Br
ATOM     49  C   UNL A   1      42.060 -37.617 -31.873  0.00  0.00    -0.047 A 
ATOM     50  C   UNL A   1      41.010 -36.745 -32.178  0.00  0.00    -0.047 A 
ENDBRANCH  42  44
ENDBRANCH  41  42
ENDBRANCH  27  41
TORSDOF 7
ENDMDL
MODEL 2
REMARK VINA RESULT:    -9.426      2.403      3.144
REMARK INTER + INTRA:         -15.689
REMARK INTER:                 -13.107
REMARK INTRA:                  -2.582
REMARK UNBOUND:                -2.406
REMARK  Name = cpd365.pdb
REMARK  14 active torsions:
REMARK  status: ('A' for Active; 'I' for Inactive)
REMARK    1  A    between atoms: C_2  and  C_3
REMARK    2  A    between atoms: C_2  and  C_4
REMARK    3  A    between atoms: C_7  and  C_8
REMARK    4  A    between atoms: C_14  and  C_15
REMARK    5  A    between atoms: C_18  and  O_19
REMARK    6  A    between atoms: O_19  and  C_20
REMARK    7  A    between atoms: C_20  and  C_22
REMARK    8  A    between atoms: C_29  and  C_30
REMARK    9  A    between atoms: C_29  and  C_31
REMARK   10  A    between atoms: C_35  and  C_36
REMARK   11  A    between atoms: C_37  and  C_38
REMARK   12  A    between atoms: C_40  and  O_41
REMARK   13  A    between atoms: O_41  and  C_42
REMARK   14  A    between atoms: C_42  and  C_44
REMARK                            x       y       z     vdW  Elec       q    Type
REMARK                         _______ _______ _______ _____ _____    ______ ____
ROOT
ATOM      1  C   UNL A   1      33.819 -38.721 -30.155  0.00  0.00    -0.017 C 
ATOM      2  C   UNL A   1      35.108 -39.601 -30.052  0.00  0.00    -0.046 C 
ATOM      3  C   UNL A   1      36.295 -38.741 -30.532  0.00  0.00    -0.043 C 
ATOM      4  C   UNL A   1      35.829 -37.291 -30.333  0.00  0.00    +0.009 C 
ATOM      5  C   UNL A   1      36.019 -36.914 -28.848  0.00  0.00    -0.056 C 
ATOM      6  C   UNL A   1      34.367 -37.411 -30.792  0.00  0.00    -0.022 C 
ATOM      7  C   UNL A   1      33.564 -35.988 -30.850  0.00  0.00    -0.031 C 
ATOM      8  C   UNL A   1      32.577 -36.257 -32.062  0.00  0.00    -0.049 C 
ATOM      9  C   UNL A   1      31.210 -35.679 -31.799  0.00  0.00    -0.049 C 
ATOM     10  C   UNL A   1      31.427 -34.199 -31.654  0.00  0.00    -0.029 C 
ATOM     11  C   UNL A   1      30.104 -33.360 -31.202  0.00  0.00    -0.025 C 
ATOM     12  C   UNL A   1      29.137 -34.233 -30.368  0.00  0.00    -0.059 C 
ATOM     13  C   UNL A   1      29.379 -32.876 -32.478  0.00  0.00    -0.044 C 
ATOM     14  C   UNL A   1      28.114 -32.056 -32.231  0.00  0.00    -0.015 C 
ATOM     15  C   UNL A   1      28.096 -31.132 -31.000  0.00  0.00    +0.109 C 
ATOM     16  C   UNL A   1      29.452 -30.910 -30.255  0.00  0.00    +0.006 C 
ATOM     17  C   UNL A   1      30.084 -29.626 -30.888  0.00  0.00    -0.056 C 
ATOM     18  C   UNL A   1      29.223 -30.551 -28.769  0.00  0.00    -0.056 C 
ATOM     19  C   UNL A   1      30.515 -32.073 -30.433  0.00  0.00    -0.027 C 
ATOM     20  C   UNL A   1      31.348 -32.417 -29.194  0.00  0.00    -0.049 C 
ATOM     21  C   UNL A   1      32.231 -33.647 -29.373  0.00  0.00    -0.047 C 
ATOM     22  C   UNL A   1      32.779 -33.909 -30.827  0.00  0.00    -0.023 C 
ATOM     23  C   UNL A   1      33.347 -32.651 -31.590  0.00  0.00    -0.059 C 
ATOM     24  C   UNL A   1      34.075 -35.224 -30.571  0.00  0.00    -0.020 C 
ATOM     25  C   UNL A   1      35.126 -33.653 -29.996  0.00  0.00    -0.059 C 
ATOM     26  C   UNL A   1      35.312 -35.291 -31.781  0.00  0.00    -0.009 C 
ATOM     27  C   UNL A   1      36.445 -36.272 -31.323  0.00  0.00    +0.110 C 
ENDROOT
BRANCH   1  29
ATOM     28  C   UNL A   1      31.753 -38.003 -28.821  0.00  0.00    -0.099 C 
ATOM     29  C   UNL A   1      32.929 -38.647 -28.916  0.00  0.00    -0.076 C 
ATOM     30  C   UNL A   1      33.492 -39.249 -27.649  0.00  0.00    -0.044 C 
ENDBRANCH   1  29
BRANCH  15  31
ATOM     31  O   UNL A   1      27.077 -31.669 -30.101  0.00  0.00    -0.457 OA
BRANCH  31  32
ATOM     32  C   UNL A   1      25.796 -31.981 -30.417  0.00  0.00    +0.339 C 
ATOM     33  O   UNL A   1      25.036 -31.167 -30.925  0.00  0.00    -0.245 OA
BRANCH  32  34
ATOM     34  C   UNL A   1      25.315 -33.356 -30.175  0.00  0.00    +0.059 A 
ATOM     35  C   UNL A   1      24.240 -33.835 -30.932  0.00  0.00    -0.047 A 
ATOM     36  C   UNL A   1      23.762 -35.130 -30.721  0.00  0.00    -0.047 A 
ATOM     37  C   UNL A   1      24.345 -35.926 -29.736  0.00  0.00    +0.018 A 
ATOM     38 BR   UNL A   1      23.705 -37.682 -29.455  0.00  0.00    -0.050 Br
ATOM     39  C   UNL A   1      25.393 -35.437 -28.951  0.00  0.00    -0.047 A 
ATOM     40  C   UNL A   1      25.875 -34.143 -29.162  0.00  0.00    -0.047 A 
ENDBRANCH  32  34
ENDBRANCH  31  32
ENDBRANCH  15  31
BRANCH  27  41
ATOM     41  O   UNL A   1      37.548 -35.597 -30.697  0.00  0.00    -0.457 OA
BRANCH  41  42
ATOM     42  C   UNL A   1      38.624 -35.319 -31.468  0.00  0.00    +0.339 C 
ATOM     43  O   UNL A   1      38.720 -34.414 -32.281  0.00  0.00    -0.245 OA
BRANCH  42  44
ATOM     44  C   UNL A   1      39.720 -36.272 -31.152  0.00  0.00    +0.059 A 
ATOM     45  C   UNL A   1      39.689 -37.090 -30.012  0.00  0.00    -0.047 A 
ATOM     46  C   UNL A   1      40.734 -37.980 -29.755  0.00  0.00    -0.047 A 
ATOM     47  C   UNL A   1      41.812 -38.053 -30.636  0.00  0.00    +0.018 A 
ATOM     48 BR   UNL A   1      43.228 -39.255 -30.285  0.00  0.00    -0.050 Br
ATOM     49  C   UNL A   1      41.853 -37.247 -31.774  0.00  0.00    -0.047 A 
ATOM     50  C   UNL A   1      40.805 -36.360 -32.034  0.00  0.00    -0.047 A 
ENDBRANCH  42  44
ENDBRANCH  41  42
ENDBRANCH  27  41
TORSDOF 7
ENDMDL
MODEL 3
REMARK VINA RESULT:    -9.311      5.228     10.349
REMARK INTER + INTRA:         -15.528
REMARK INTER:                 -13.489
REMARK INTRA:                  -2.038
REMARK UNBOUND:                -2.406
REMARK  Name = cpd365.pdb
REMARK  14 active torsions:
REMARK  status: ('A' for Active; 'I' for Inactive)
REMARK    1  A    between atoms: C_2  and  C_3
REMARK    2  A    between atoms: C_2  and  C_4
REMARK    3  A    between atoms: C_7  and  C_8
REMARK    4  A    between atoms: C_14  and  C_15
REMARK    5  A    between atoms: C_18  and  O_19
REMARK    6  A    between atoms: O_19  and  C_20
REMARK    7  A    between atoms: C_20  and  C_22
REMARK    8  A    between atoms: C_29  and  C_30
REMARK    9  A    between atoms: C_29  and  C_31
REMARK   10  A    between atoms: C_35  and  C_36
REMARK   11  A    between atoms: C_37  and  C_38
REMARK   12  A    between atoms: C_40  and  O_41
REMARK   13  A    between atoms: O_41  and  C_42
REMARK   14  A    between atoms: C_42  and  C_44
REMARK                            x       y       z     vdW  Elec       q    Type
REMARK                         _______ _______ _______ _____ _____    ______ ____
ROOT
ATOM      1  C   UNL A   1      33.185 -34.412 -29.164  0.00  0.00    -0.017 C 
ATOM      2  C   UNL A   1      33.695 -33.141 -29.920  0.00  0.00    -0.046 C 
ATOM      3  C   UNL A   1      35.142 -33.420 -30.373  0.00  0.00    -0.043 C 
ATOM      4  C   UNL A   1      35.242 -34.952 -30.427  0.00  0.00    +0.009 C 
ATOM      5  C   UNL A   1      34.619 -35.438 -31.753  0.00  0.00    -0.056 C 
ATOM      6  C   UNL A   1      34.449 -35.320 -29.163  0.00  0.00    -0.022 C 
ATOM      7  C   UNL A   1      34.459 -36.916 -28.807  0.00  0.00    -0.031 C 
ATOM      8  C   UNL A   1      34.398 -36.864 -27.222  0.00  0.00    -0.049 C 
ATOM      9  C   UNL A   1      33.498 -37.939 -26.669  0.00  0.00    -0.049 C 
ATOM     10  C   UNL A   1      34.121 -39.237 -27.101  0.00  0.00    -0.029 C 
ATOM     11  C   UNL A   1      33.237 -40.562 -26.755  0.00  0.00    -0.025 C 
ATOM     12  C   UNL A   1      31.725 -40.239 -26.711  0.00  0.00    -0.059 C 
ATOM     13  C   UNL A   1      33.683 -41.095 -25.374  0.00  0.00    -0.044 C 
ATOM     14  C   UNL A   1      32.956 -42.352 -24.900  0.00  0.00    -0.015 C 
ATOM     15  C   UNL A   1      32.548 -43.381 -25.969  0.00  0.00    +0.109 C 
ATOM     16  C   UNL A   1      33.132 -43.186 -27.407  0.00  0.00    +0.006 C 
ATOM     17  C   UNL A   1      34.443 -44.040 -27.456  0.00  0.00    -0.056 C 
ATOM     18  C   UNL A   1      32.208 -43.812 -28.477  0.00  0.00    -0.056 C 
ATOM     19  C   UNL A   1      33.546 -41.700 -27.768  0.00  0.00    -0.027 C 
ATOM     20  C   UNL A   1      33.251 -41.251 -29.203  0.00  0.00    -0.049 C 
ATOM     21  C   UNL A   1      33.514 -39.768 -29.446  0.00  0.00    -0.047 C 
ATOM     22  C   UNL A   1      34.679 -39.118 -28.607  0.00  0.00    -0.023 C 
ATOM     23  C   UNL A   1      36.014 -39.953 -28.513  0.00  0.00    -0.059 C 
ATOM     24  C   UNL A   1      34.936 -37.466 -29.432  0.00  0.00    -0.020 C 
ATOM     25  C   UNL A   1      35.919 -38.599 -30.719  0.00  0.00    -0.059 C 
ATOM     26  C   UNL A   1      36.510 -36.774 -29.228  0.00  0.00    -0.009 C 
ATOM     27  C   UNL A   1      36.657 -35.517 -30.154  0.00  0.00    +0.110 C 
ENDROOT
BRANCH   1  29
ATOM     28  C   UNL A   1      31.197 -36.024 -29.039  0.00  0.00    -0.099 C 
ATOM     29  C   UNL A   1      31.840 -34.987 -29.603  0.00  0.00    -0.076 C 
ATOM     30  C   UNL A   1      31.245 -34.411 -30.868  0.00  0.00    -0.044 C 
ENDBRANCH   1  29
BRANCH  15  31
ATOM     31  O   UNL A   1      31.087 -43.394 -25.988  0.00  0.00    -0.457 OA
BRANCH  31  32
ATOM     32  C   UNL A   1      30.274 -44.287 -25.370  0.00  0.00    +0.339 C 
ATOM     33  O   UNL A   1      29.423 -43.938 -24.561  0.00  0.00    -0.245 OA
BRANCH  32  34
ATOM     34  C   UNL A   1      30.392 -45.717 -25.713  0.00  0.00    +0.059 A 
ATOM     35  C   UNL A   1      31.115 -46.557 -24.859  0.00  0.00    -0.047 A 
ATOM     36  C   UNL A   1      31.246 -47.913 -25.162  0.00  0.00    -0.047 A 
ATOM     37  C   UNL A   1      30.677 -48.415 -26.332  0.00  0.00    +0.018 A 
ATOM     38 BR   UNL A   1      30.847 -50.252 -26.740  0.00  0.00    -0.050 Br
ATOM     39  C   UNL A   1      29.988 -47.572 -27.208  0.00  0.00    -0.047 A 
ATOM     40  C   UNL A   1      29.853 -46.215 -26.905  0.00  0.00    -0.047 A 
ENDBRANCH  32  34
ENDBRANCH  31  32
ENDBRANCH  15  31
BRANCH  27  41
ATOM     41  O   UNL A   1      37.307 -35.816 -31.400  0.00  0.00    -0.457 OA
BRANCH  41  42
ATOM     42  C   UNL A   1      38.471 -35.178 -31.662  0.00  0.00    +0.339 C 
ATOM     43  O   UNL A   1      38.600 -34.013 -31.998  0.00  0.00    -0.245 OA
BRANCH  42  44
ATOM     44  C   UNL A   1      39.608 -36.111 -31.442  0.00  0.00    +0.059 A 
ATOM     45  C   UNL A   1      40.641 -36.258 -32.379  0.00  0.00    -0.047 A 
ATOM     46  C   UNL A   1      41.698 -37.138 -32.131  0.00  0.00    -0.047 A 
ATOM     47  C   UNL A   1      41.721 -37.872 -30.946  0.00  0.00    +0.018 A 
ATOM     48 BR   UNL A   1      43.149 -39.065 -30.613  0.00  0.00    -0.050 Br
ATOM     49  C   UNL A   1      40.701 -37.731 -30.005  0.00  0.00    -0.047 A 
ATOM     50  C   UNL A   1      39.647 -36.847 -30.251  0.00  0.00    -0.047 A 
ENDBRANCH  42  44
ENDBRANCH  41  42
ENDBRANCH  27  41
TORSDOF 7
ENDMDL
MODEL 4
REMARK VINA RESULT:    -8.860      5.720     12.140
REMARK INTER + INTRA:         -14.892
REMARK INTER:                 -13.146
REMARK INTRA:                  -1.746
REMARK UNBOUND:                -2.406
REMARK  Name = cpd365.pdb
REMARK  14 active torsions:
REMARK  status: ('A' for Active; 'I' for Inactive)
REMARK    1  A    between atoms: C_2  and  C_3
REMARK    2  A    between atoms: C_2  and  C_4
REMARK    3  A    between atoms: C_7  and  C_8
REMARK    4  A    between atoms: C_14  and  C_15
REMARK    5  A    between atoms: C_18  and  O_19
REMARK    6  A    between atoms: O_19  and  C_20
REMARK    7  A    between atoms: C_20  and  C_22
REMARK    8  A    between atoms: C_29  and  C_30
REMARK    9  A    between atoms: C_29  and  C_31
REMARK   10  A    between atoms: C_35  and  C_36
REMARK   11  A    between atoms: C_37  and  C_38
REMARK   12  A    between atoms: C_40  and  O_41
REMARK   13  A    between atoms: O_41  and  C_42
REMARK   14  A    between atoms: C_42  and  C_44
REMARK                            x       y       z     vdW  Elec       q    Type
REMARK                         _______ _______ _______ _____ _____    ______ ____
ROOT
ATOM      1  C   UNL A   1      37.843 -37.611 -30.234  0.00  0.00    -0.017 C 
ATOM      2  C   UNL A   1      38.229 -36.251 -30.906  0.00  0.00    -0.046 C 
ATOM      3  C   UNL A   1      36.959 -35.688 -31.575  0.00  0.00    -0.043 C 
ATOM      4  C   UNL A   1      35.796 -36.350 -30.819  0.00  0.00    +0.009 C 
ATOM      5  C   UNL A   1      35.570 -35.584 -29.499  0.00  0.00    -0.056 C 
ATOM      6  C   UNL A   1      36.355 -37.773 -30.658  0.00  0.00    -0.022 C 
ATOM      7  C   UNL A   1      35.301 -38.835 -29.998  0.00  0.00    -0.031 C 
ATOM      8  C   UNL A   1      35.737 -40.175 -30.727  0.00  0.00    -0.049 C 
ATOM      9  C   UNL A   1      35.706 -41.351 -29.786  0.00  0.00    -0.049 C 
ATOM     10  C   UNL A   1      34.273 -41.468 -29.347  0.00  0.00    -0.029 C 
ATOM     11  C   UNL A   1      34.007 -42.584 -28.188  0.00  0.00    -0.025 C 
ATOM     12  C   UNL A   1      35.259 -42.791 -27.303  0.00  0.00    -0.059 C 
ATOM     13  C   UNL A   1      33.645 -43.919 -28.876  0.00  0.00    -0.044 C 
ATOM     14  C   UNL A   1      33.350 -45.078 -27.925  0.00  0.00    -0.015 C 
ATOM     15  C   UNL A   1      32.655 -44.744 -26.593  0.00  0.00    +0.109 C 
ATOM     16  C   UNL A   1      32.075 -43.300 -26.434  0.00  0.00    +0.006 C 
ATOM     17  C   UNL A   1      30.582 -43.385 -26.896  0.00  0.00    -0.056 C 
ATOM     18  C   UNL A   1      32.010 -42.883 -24.947  0.00  0.00    -0.056 C 
ATOM     19  C   UNL A   1      32.766 -42.195 -27.336  0.00  0.00    -0.027 C 
ATOM     20  C   UNL A   1      32.956 -40.821 -26.686  0.00  0.00    -0.049 C 
ATOM     21  C   UNL A   1      33.773 -39.851 -27.534  0.00  0.00    -0.047 C 
ATOM     22  C   UNL A   1      33.642 -40.007 -29.096  0.00  0.00    -0.023 C 
ATOM     23  C   UNL A   1      32.179 -40.200 -29.653  0.00  0.00    -0.059 C 
ATOM     24  C   UNL A   1      34.450 -38.462 -29.755  0.00  0.00    -0.020 C 
ATOM     25  C   UNL A   1      32.699 -37.694 -29.256  0.00  0.00    -0.059 C 
ATOM     26  C   UNL A   1      33.931 -37.969 -31.332  0.00  0.00    -0.009 C 
ATOM     27  C   UNL A   1      34.510 -36.549 -31.658  0.00  0.00    +0.110 C 
ENDROOT
BRANCH   1  29
ATOM     28  C   UNL A   1      37.419 -37.713 -27.709  0.00  0.00    -0.099 C 
ATOM     29  C   UNL A   1      38.239 -37.798 -28.771  0.00  0.00    -0.076 C 
ATOM     30  C   UNL A   1      39.715 -37.967 -28.492  0.00  0.00    -0.044 C 
ENDBRANCH   1  29
BRANCH  15  31
ATOM     31  O   UNL A   1      33.620 -45.047 -25.540  0.00  0.00    -0.457 OA
BRANCH  31  32
ATOM     32  C   UNL A   1      33.513 -46.011 -24.592  0.00  0.00    +0.339 C 
ATOM     33  O   UNL A   1      33.859 -45.822 -23.433  0.00  0.00    -0.245 OA
BRANCH  32  34
ATOM     34  C   UNL A   1      32.926 -47.314 -24.960  0.00  0.00    +0.059 A 
ATOM     35  C   UNL A   1      33.687 -48.201 -25.730  0.00  0.00    -0.047 A 
ATOM     36  C   UNL A   1      33.154 -49.438 -26.097  0.00  0.00    -0.047 A 
ATOM     37  C   UNL A   1      31.854 -49.768 -25.714  0.00  0.00    +0.018 A 
ATOM     38 BR   UNL A   1      31.134 -51.446 -26.203  0.00  0.00    -0.050 Br
ATOM     39  C   UNL A   1      31.077 -48.869 -24.979  0.00  0.00    -0.047 A 
ATOM     40  C   UNL A   1      31.609 -47.631 -24.609  0.00  0.00    -0.047 A 
ENDBRANCH  32  34
ENDBRANCH  31  32
ENDBRANCH  15  31
BRANCH  27  41
ATOM     41  O   UNL A   1      33.582 -35.490 -31.377  0.00  0.00    -0.457 OA
BRANCH  41  42
ATOM     42  C   UNL A   1      33.279 -34.645 -32.389  0.00  0.00    +0.339 C 
ATOM     43  O   UNL A   1      33.570 -34.788 -33.565  0.00  0.00    -0.245 OA
BRANCH  42  44
ATOM     44  C   UNL A   1      32.488 -33.502 -31.861  0.00  0.00    +0.059 A 
ATOM     45  C   UNL A   1      33.084 -32.454 -31.143  0.00  0.00    -0.047 A 
ATOM     46  C   UNL A   1      32.308 -31.393 -30.672  0.00  0.00    -0.047 A 
ATOM     47  C   UNL A   1      30.936 -31.379 -30.917  0.00  0.00    +0.018 A 
ATOM     48 BR   UNL A   1      29.885 -29.943 -30.276  0.00  0.00    -0.050 Br
ATOM     49  C   UNL A   1      30.333 -32.412 -31.633  0.00  0.00    -0.047 A 
ATOM     50  C   UNL A   1      31.110 -33.472 -32.109  0.00  0.00    -0.047 A 
ENDBRANCH  42  44
ENDBRANCH  41  42
ENDBRANCH  27  41
TORSDOF 7
ENDMDL
MODEL 5
REMARK VINA RESULT:    -8.789     16.406     18.637
REMARK INTER + INTRA:         -14.791
REMARK INTER:                 -12.475
REMARK INTRA:                  -2.316
REMARK UNBOUND:                -2.406
REMARK  Name = cpd365.pdb
REMARK  14 active torsions:
REMARK  status: ('A' for Active; 'I' for Inactive)
REMARK    1  A    between atoms: C_2  and  C_3
REMARK    2  A    between atoms: C_2  and  C_4
REMARK    3  A    between atoms: C_7  and  C_8
REMARK    4  A    between atoms: C_14  and  C_15
REMARK    5  A    between atoms: C_18  and  O_19
REMARK    6  A    between atoms: O_19  and  C_20
REMARK    7  A    between atoms: C_20  and  C_22
REMARK    8  A    between atoms: C_29  and  C_30
REMARK    9  A    between atoms: C_29  and  C_31
REMARK   10  A    between atoms: C_35  and  C_36
REMARK   11  A    between atoms: C_37  and  C_38
REMARK   12  A    between atoms: C_40  and  O_41
REMARK   13  A    between atoms: O_41  and  C_42
REMARK   14  A    between atoms: C_42  and  C_44
REMARK                            x       y       z     vdW  Elec       q    Type
REMARK                         _______ _______ _______ _____ _____    ______ ____
ROOT
ATOM      1  C   UNL A   1      45.117 -19.683 -35.488  0.00  0.00    -0.017 C 
ATOM      2  C   UNL A   1      46.446 -19.864 -36.293  0.00  0.00    -0.046 C 
ATOM      3  C   UNL A   1      46.071 -20.391 -37.693  0.00  0.00    -0.043 C 
ATOM      4  C   UNL A   1      44.612 -19.953 -37.894  0.00  0.00    +0.009 C 
ATOM      5  C   UNL A   1      44.600 -18.473 -38.331  0.00  0.00    -0.056 C 
ATOM      6  C   UNL A   1      44.053 -20.221 -36.488  0.00  0.00    -0.022 C 
ATOM      7  C   UNL A   1      42.439 -19.995 -36.354  0.00  0.00    -0.031 C 
ATOM      8  C   UNL A   1      42.079 -21.085 -35.260  0.00  0.00    -0.049 C 
ATOM      9  C   UNL A   1      41.053 -20.571 -34.284  0.00  0.00    -0.049 C 
ATOM     10  C   UNL A   1      39.833 -20.274 -35.112  0.00  0.00    -0.029 C 
ATOM     11  C   UNL A   1      38.621 -19.548 -34.299  0.00  0.00    -0.025 C 
ATOM     12  C   UNL A   1      39.157 -18.704 -33.118  0.00  0.00    -0.059 C 
ATOM     13  C   UNL A   1      37.678 -20.644 -33.754  0.00  0.00    -0.044 C 
ATOM     14  C   UNL A   1      36.472 -20.129 -32.971  0.00  0.00    -0.015 C 
ATOM     15  C   UNL A   1      35.841 -18.802 -33.430  0.00  0.00    +0.109 C 
ATOM     16  C   UNL A   1      36.315 -18.226 -34.805  0.00  0.00    +0.006 C 
ATOM     17  C   UNL A   1      35.308 -18.776 -35.869  0.00  0.00    -0.056 C 
ATOM     18  C   UNL A   1      36.150 -16.690 -34.855  0.00  0.00    -0.056 C 
ATOM     19  C   UNL A   1      37.759 -18.689 -35.266  0.00  0.00    -0.027 C 
ATOM     20  C   UNL A   1      38.613 -17.626 -35.965  0.00  0.00    -0.049 C 
ATOM     21  C   UNL A   1      40.046 -18.073 -36.235  0.00  0.00    -0.047 C 
ATOM     22  C   UNL A   1      40.257 -19.609 -36.517  0.00  0.00    -0.023 C 
ATOM     23  C   UNL A   1      39.226 -20.281 -37.504  0.00  0.00    -0.059 C 
ATOM     24  C   UNL A   1      42.006 -19.695 -37.156  0.00  0.00    -0.020 C 
ATOM     25  C   UNL A   1      41.113 -19.078 -38.808  0.00  0.00    -0.059 C 
ATOM     26  C   UNL A   1      42.361 -21.060 -38.161  0.00  0.00    -0.009 C 
ATOM     27  C   UNL A   1      43.778 -20.884 -38.808  0.00  0.00    +0.110 C 
ENDROOT
BRANCH   1  29
ATOM     28  C   UNL A   1      45.505 -17.177 -35.121  0.00  0.00    -0.099 C 
ATOM     29  C   UNL A   1      44.901 -18.335 -34.803  0.00  0.00    -0.076 C 
ATOM     30  C   UNL A   1      44.020 -18.341 -33.575  0.00  0.00    -0.044 C 
ENDBRANCH   1  29
BRANCH  15  31
ATOM     31  O   UNL A   1      36.065 -17.847 -32.349  0.00  0.00    -0.457 OA
BRANCH  31  32
ATOM     32  C   UNL A   1      35.173 -16.952 -31.856  0.00  0.00    +0.339 C 
ATOM     33  O   UNL A   1      33.967 -17.160 -31.876  0.00  0.00    -0.245 OA
BRANCH  32  34
ATOM     34  C   UNL A   1      35.675 -15.707 -31.241  0.00  0.00    +0.059 A 
ATOM     35  C   UNL A   1      34.750 -14.771 -30.767  0.00  0.00    -0.047 A 
ATOM     36  C   UNL A   1      35.198 -13.583 -30.185  0.00  0.00    -0.047 A 
ATOM     37  C   UNL A   1      36.567 -13.328 -30.108  0.00  0.00    +0.018 A 
ATOM     38 BR   UNL A   1      37.174 -11.724 -29.313  0.00  0.00    -0.050 Br
ATOM     39  C   UNL A   1      37.492 -14.243 -30.617  0.00  0.00    -0.047 A 
ATOM     40  C   UNL A   1      37.047 -15.434 -31.196  0.00  0.00    -0.047 A 
ENDBRANCH  32  34
ENDBRANCH  31  32
ENDBRANCH  15  31
BRANCH  27  41
ATOM     41  O   UNL A   1      43.721 -20.335 -40.134  0.00  0.00    -0.457 OA
BRANCH  41  42
ATOM     42  C   UNL A   1      44.062 -21.149 -41.159  0.00  0.00    +0.339 C 
ATOM     43  O   UNL A   1      43.312 -21.596 -42.011  0.00  0.00    -0.245 OA
BRANCH  42  44
ATOM     44  C   UNL A   1      45.527 -21.402 -41.125  0.00  0.00    +0.059 A 
ATOM     45  C   UNL A   1      46.458 -20.435 -41.530  0.00  0.00    -0.047 A 
ATOM     46  C   UNL A   1      47.827 -20.707 -41.474  0.00  0.00    -0.047 A 
ATOM     47  C   UNL A   1      48.266 -21.947 -41.014  0.00  0.00    +0.018 A 
ATOM     48 BR   UNL A   1      50.119 -22.317 -40.941  0.00  0.00    -0.050 Br
ATOM     49  C   UNL A   1      47.350 -22.916 -40.604  0.00  0.00    -0.047 A 
ATOM     50  C   UNL A   1      45.980 -22.642 -40.656  0.00  0.00    -0.047 A 
ENDBRANCH  42  44
ENDBRANCH  41  42
ENDBRANCH  27  41
TORSDOF 7
ENDMDL
MODEL 6
REMARK VINA RESULT:    -8.390      2.927      4.187
REMARK INTER + INTRA:         -14.229
REMARK INTER:                 -12.596
REMARK INTRA:                  -1.634
REMARK UNBOUND:                -2.406
REMARK  Name = cpd365.pdb
REMARK  14 active torsions:
REMARK  status: ('A' for Active; 'I' for Inactive)
REMARK    1  A    between atoms: C_2  and  C_3
REMARK    2  A    between atoms: C_2  and  C_4
REMARK    3  A    between atoms: C_7  and  C_8
REMARK    4  A    between atoms: C_14  and  C_15
REMARK    5  A    between atoms: C_18  and  O_19
REMARK    6  A    between atoms: O_19  and  C_20
REMARK    7  A    between atoms: C_20  and  C_22
REMARK    8  A    between atoms: C_29  and  C_30
REMARK    9  A    between atoms: C_29  and  C_31
REMARK   10  A    between atoms: C_35  and  C_36
REMARK   11  A    between atoms: C_37  and  C_38
REMARK   12  A    between atoms: C_40  and  O_41
REMARK   13  A    between atoms: O_41  and  C_42
REMARK   14  A    between atoms: C_42  and  C_44
REMARK                            x       y       z     vdW  Elec       q    Type
REMARK                         _______ _______ _______ _____ _____    ______ ____
ROOT
ATOM      1  C   UNL A   1      33.258 -38.988 -32.372  0.00  0.00    -0.017 C 
ATOM      2  C   UNL A   1      34.290 -40.162 -32.309  0.00  0.00    -0.046 C 
ATOM      3  C   UNL A   1      35.465 -39.698 -31.426  0.00  0.00    -0.043 C 
ATOM      4  C   UNL A   1      34.873 -38.591 -30.541  0.00  0.00    +0.009 C 
ATOM      5  C   UNL A   1      34.114 -39.252 -29.370  0.00  0.00    -0.056 C 
ATOM      6  C   UNL A   1      33.984 -37.872 -31.568  0.00  0.00    -0.022 C 
ATOM      7  C   UNL A   1      33.277 -36.509 -31.003  0.00  0.00    -0.031 C 
ATOM      8  C   UNL A   1      33.227 -35.635 -32.326  0.00  0.00    -0.049 C 
ATOM      9  C   UNL A   1      31.936 -34.864 -32.429  0.00  0.00    -0.049 C 
ATOM     10  C   UNL A   1      31.920 -33.956 -31.231  0.00  0.00    -0.029 C 
ATOM     11  C   UNL A   1      30.533 -33.122 -31.030  0.00  0.00    -0.025 C 
ATOM     12  C   UNL A   1      29.323 -33.883 -31.623  0.00  0.00    -0.059 C 
ATOM     13  C   UNL A   1      30.679 -31.761 -31.748  0.00  0.00    -0.044 C 
ATOM     14  C   UNL A   1      29.462 -30.844 -31.646  0.00  0.00    -0.015 C 
ATOM     15  C   UNL A   1      28.650 -30.883 -30.339  0.00  0.00    +0.109 C 
ATOM     16  C   UNL A   1      29.277 -31.657 -29.134  0.00  0.00    +0.006 C 
ATOM     17  C   UNL A   1      30.069 -30.592 -28.306  0.00  0.00    -0.056 C 
ATOM     18  C   UNL A   1      28.183 -32.177 -28.172  0.00  0.00    -0.056 C 
ATOM     19  C   UNL A   1      30.314 -32.788 -29.528  0.00  0.00    -0.027 C 
ATOM     20  C   UNL A   1      30.267 -34.066 -28.683  0.00  0.00    -0.049 C 
ATOM     21  C   UNL A   1      31.167 -35.180 -29.209  0.00  0.00    -0.047 C 
ATOM     22  C   UNL A   1      32.489 -34.727 -29.936  0.00  0.00    -0.023 C 
ATOM     23  C   UNL A   1      33.310 -33.581 -29.228  0.00  0.00    -0.059 C 
ATOM     24  C   UNL A   1      33.466 -36.307 -30.084  0.00  0.00    -0.020 C 
ATOM     25  C   UNL A   1      33.855 -35.891 -28.192  0.00  0.00    -0.059 C 
ATOM     26  C   UNL A   1      35.181 -36.109 -30.216  0.00  0.00    -0.009 C 
ATOM     27  C   UNL A   1      35.884 -37.505 -30.100  0.00  0.00    +0.110 C 
ENDROOT
BRANCH   1  29
ATOM     28  C   UNL A   1      31.368 -40.398 -31.368  0.00  0.00    -0.099 C 
ATOM     29  C   UNL A   1      31.802 -39.327 -32.054  0.00  0.00    -0.076 C 
ATOM     30  C   UNL A   1      30.754 -38.438 -32.683  0.00  0.00    -0.044 C 
ENDBRANCH   1  29
BRANCH  15  31
ATOM     31  O   UNL A   1      27.337 -31.420 -30.690  0.00  0.00    -0.457 OA
BRANCH  31  32
ATOM     32  C   UNL A   1      26.608 -31.130 -31.796  0.00  0.00    +0.339 C 
ATOM     33  O   UNL A   1      26.091 -30.032 -31.964  0.00  0.00    -0.245 OA
BRANCH  32  34
ATOM     34  C   UNL A   1      26.468 -32.155 -32.848  0.00  0.00    +0.059 A 
ATOM     35  C   UNL A   1      25.794 -33.343 -32.544  0.00  0.00    -0.047 A 
ATOM     36  C   UNL A   1      25.651 -34.332 -33.519  0.00  0.00    -0.047 A 
ATOM     37  C   UNL A   1      26.208 -34.137 -34.783  0.00  0.00    +0.018 A 
ATOM     38 BR   UNL A   1      26.008 -35.472 -36.107  0.00  0.00    -0.050 Br
ATOM     39  C   UNL A   1      26.915 -32.969 -35.079  0.00  0.00    -0.047 A 
ATOM     40  C   UNL A   1      27.057 -31.977 -34.105  0.00  0.00    -0.047 A 
ENDBRANCH  32  34
ENDBRANCH  31  32
ENDBRANCH  15  31
BRANCH  27  41
ATOM     41  O   UNL A   1      36.347 -37.787 -28.770  0.00  0.00    -0.457 OA
BRANCH  41  42
ATOM     42  C   UNL A   1      37.397 -38.631 -28.644  0.00  0.00    +0.339 C 
ATOM     43  O   UNL A   1      37.382 -39.736 -28.128  0.00  0.00    -0.245 OA
BRANCH  42  44
ATOM     44  C   UNL A   1      38.599 -38.023 -29.272  0.00  0.00    +0.059 A 
ATOM     45  C   UNL A   1      38.507 -37.167 -30.380  0.00  0.00    -0.047 A 
ATOM     46  C   UNL A   1      39.660 -36.607 -30.936  0.00  0.00    -0.047 A 
ATOM     47  C   UNL A   1      40.906 -36.904 -30.386  0.00  0.00    +0.018 A 
ATOM     48 BR   UNL A   1      42.466 -36.149 -31.142  0.00  0.00    -0.050 Br
ATOM     49  C   UNL A   1      41.010 -37.750 -29.282  0.00  0.00    -0.047 A 
ATOM     50  C   UNL A   1      39.856 -38.306 -28.723  0.00  0.00    -0.047 A 
ENDBRANCH  42  44
ENDBRANCH  41  42
ENDBRANCH  27  41
TORSDOF 7
ENDMDL
MODEL 7
REMARK VINA RESULT:    -8.377     20.211     23.568
REMARK INTER + INTRA:         -14.210
REMARK INTER:                 -11.798
REMARK INTRA:                  -2.413
REMARK UNBOUND:                -2.406
REMARK  Name = cpd365.pdb
REMARK  14 active torsions:
REMARK  status: ('A' for Active; 'I' for Inactive)
REMARK    1  A    between atoms: C_2  and  C_3
REMARK    2  A    between atoms: C_2  and  C_4
REMARK    3  A    between atoms: C_7  and  C_8
REMARK    4  A    between atoms: C_14  and  C_15
REMARK    5  A    between atoms: C_18  and  O_19
REMARK    6  A    between atoms: O_19  and  C_20
REMARK    7  A    between atoms: C_20  and  C_22
REMARK    8  A    between atoms: C_29  and  C_30
REMARK    9  A    between atoms: C_29  and  C_31
REMARK   10  A    between atoms: C_35  and  C_36
REMARK   11  A    between atoms: C_37  and  C_38
REMARK   12  A    between atoms: C_40  and  O_41
REMARK   13  A    between atoms: O_41  and  C_42
REMARK   14  A    between atoms: C_42  and  C_44
REMARK                            x       y       z     vdW  Elec       q    Type
REMARK                         _______ _______ _______ _____ _____    ______ ____
ROOT
ATOM      1  C   UNL A   1      42.276 -21.579 -38.222  0.00  0.00    -0.017 C 
ATOM      2  C   UNL A   1      41.317 -22.568 -37.479  0.00  0.00    -0.046 C 
ATOM      3  C   UNL A   1      41.114 -22.028 -36.049  0.00  0.00    -0.043 C 
ATOM      4  C   UNL A   1      41.421 -20.526 -36.153  0.00  0.00    +0.009 C 
ATOM      5  C   UNL A   1      40.175 -19.809 -36.716  0.00  0.00    -0.056 C 
ATOM      6  C   UNL A   1      42.632 -20.563 -37.099  0.00  0.00    -0.022 C 
ATOM      7  C   UNL A   1      43.339 -19.108 -37.337  0.00  0.00    -0.031 C 
ATOM      8  C   UNL A   1      44.852 -19.545 -37.532  0.00  0.00    -0.049 C 
ATOM      9  C   UNL A   1      45.524 -18.741 -38.614  0.00  0.00    -0.049 C 
ATOM     10  C   UNL A   1      45.475 -17.316 -38.138  0.00  0.00    -0.029 C 
ATOM     11  C   UNL A   1      46.005 -16.220 -39.221  0.00  0.00    -0.025 C 
ATOM     12  C   UNL A   1      45.795 -16.710 -40.674  0.00  0.00    -0.059 C 
ATOM     13  C   UNL A   1      47.513 -15.987 -38.977  0.00  0.00    -0.044 C 
ATOM     14  C   UNL A   1      48.170 -14.969 -39.907  0.00  0.00    -0.015 C 
ATOM     15  C   UNL A   1      47.321 -13.766 -40.355  0.00  0.00    +0.109 C 
ATOM     16  C   UNL A   1      45.957 -13.544 -39.624  0.00  0.00    +0.006 C 
ATOM     17  C   UNL A   1      46.258 -12.563 -38.443  0.00  0.00    -0.056 C 
ATOM     18  C   UNL A   1      44.955 -12.787 -40.526  0.00  0.00    -0.056 C 
ATOM     19  C   UNL A   1      45.320 -14.845 -38.981  0.00  0.00    -0.027 C 
ATOM     20  C   UNL A   1      43.796 -14.967 -39.084  0.00  0.00    -0.049 C 
ATOM     21  C   UNL A   1      43.256 -16.309 -38.601  0.00  0.00    -0.047 C 
ATOM     22  C   UNL A   1      44.057 -17.008 -37.438  0.00  0.00    -0.023 C 
ATOM     23  C   UNL A   1      44.496 -16.077 -36.243  0.00  0.00    -0.059 C 
ATOM     24  C   UNL A   1      42.916 -18.374 -36.886  0.00  0.00    -0.020 C 
ATOM     25  C   UNL A   1      42.046 -16.864 -35.956  0.00  0.00    -0.059 C 
ATOM     26  C   UNL A   1      43.142 -18.916 -35.257  0.00  0.00    -0.009 C 
ATOM     27  C   UNL A   1      41.980 -19.889 -34.858  0.00  0.00    +0.110 C 
ENDROOT
BRANCH   1  29
ATOM     28  C   UNL A   1      40.550 -20.936 -40.004  0.00  0.00    -0.099 C 
ATOM     29  C   UNL A   1      41.822 -21.070 -39.588  0.00  0.00    -0.076 C 
ATOM     30  C   UNL A   1      42.912 -20.816 -40.605  0.00  0.00    -0.044 C 
ENDBRANCH   1  29
BRANCH  15  31
ATOM     31  O   UNL A   1      47.134 -13.912 -41.796  0.00  0.00    -0.457 OA
BRANCH  31  32
ATOM     32  C   UNL A   1      47.792 -13.241 -42.774  0.00  0.00    +0.339 C 
ATOM     33  O   UNL A   1      47.338 -12.223 -43.281  0.00  0.00    -0.245 OA
BRANCH  32  34
ATOM     34  C   UNL A   1      49.113 -13.732 -43.212  0.00  0.00    +0.059 A 
ATOM     35  C   UNL A   1      50.072 -12.801 -43.631  0.00  0.00    -0.047 A 
ATOM     36  C   UNL A   1      51.328 -13.239 -44.054  0.00  0.00    -0.047 A 
ATOM     37  C   UNL A   1      51.607 -14.605 -44.083  0.00  0.00    +0.018 A 
ATOM     38 BR   UNL A   1      53.310 -15.198 -44.649  0.00  0.00    -0.050 Br
ATOM     39  C   UNL A   1      50.639 -15.539 -43.704  0.00  0.00    -0.047 A 
ATOM     40  C   UNL A   1      49.382 -15.103 -43.277  0.00  0.00    -0.047 A 
ENDBRANCH  32  34
ENDBRANCH  31  32
ENDBRANCH  15  31
BRANCH  27  41
ATOM     41  O   UNL A   1      40.920 -19.230 -34.147  0.00  0.00    -0.457 OA
BRANCH  41  42
ATOM     42  C   UNL A   1      40.614 -19.699 -32.915  0.00  0.00    +0.339 C 
ATOM     43  O   UNL A   1      40.846 -19.149 -31.851  0.00  0.00    -0.245 OA
BRANCH  42  44
ATOM     44  C   UNL A   1      39.900 -20.997 -33.042  0.00  0.00    +0.059 A 
ATOM     45  C   UNL A   1      40.506 -22.215 -32.698  0.00  0.00    -0.047 A 
ATOM     46  C   UNL A   1      39.799 -23.413 -32.822  0.00  0.00    -0.047 A 
ATOM     47  C   UNL A   1      38.486 -23.395 -33.290  0.00  0.00    +0.018 A 
ATOM     48 BR   UNL A   1      37.531 -25.017 -33.460  0.00  0.00    -0.050 Br
ATOM     49  C   UNL A   1      37.872 -22.190 -33.630  0.00  0.00    -0.047 A 
ATOM     50  C   UNL A   1      38.578 -20.990 -33.502  0.00  0.00    -0.047 A 
ENDBRANCH  42  44
ENDBRANCH  41  42
ENDBRANCH  27  41
TORSDOF 7
ENDMDL
MODEL 8
REMARK VINA RESULT:    -8.307      5.474     11.725
REMARK INTER + INTRA:         -14.112
REMARK INTER:                 -12.431
REMARK INTRA:                  -1.681
REMARK UNBOUND:                -2.406
REMARK  Name = cpd365.pdb
REMARK  14 active torsions:
REMARK  status: ('A' for Active; 'I' for Inactive)
REMARK    1  A    between atoms: C_2  and  C_3
REMARK    2  A    between atoms: C_2  and  C_4
REMARK    3  A    between atoms: C_7  and  C_8
REMARK    4  A    between atoms: C_14  and  C_15
REMARK    5  A    between atoms: C_18  and  O_19
REMARK    6  A    between atoms: O_19  and  C_20
REMARK    7  A    between atoms: C_20  and  C_22
REMARK    8  A    between atoms: C_29  and  C_30
REMARK    9  A    between atoms: C_29  and  C_31
REMARK   10  A    between atoms: C_35  and  C_36
REMARK   11  A    between atoms: C_37  and  C_38
REMARK   12  A    between atoms: C_40  and  O_41
REMARK   13  A    between atoms: O_41  and  C_42
REMARK   14  A    between atoms: C_42  and  C_44
REMARK                            x       y       z     vdW  Elec       q    Type
REMARK                         _______ _______ _______ _____ _____    ______ ____
ROOT
ATOM      1  C   UNL A   1      37.633 -37.481 -30.353  0.00  0.00    -0.017 C 
ATOM      2  C   UNL A   1      38.075 -36.067 -30.857  0.00  0.00    -0.046 C 
ATOM      3  C   UNL A   1      36.830 -35.379 -31.453  0.00  0.00    -0.043 C 
ATOM      4  C   UNL A   1      35.639 -36.081 -30.782  0.00  0.00    +0.009 C 
ATOM      5  C   UNL A   1      35.437 -35.470 -29.379  0.00  0.00    -0.056 C 
ATOM      6  C   UNL A   1      36.142 -37.534 -30.793  0.00  0.00    -0.022 C 
ATOM      7  C   UNL A   1      35.045 -38.625 -30.265  0.00  0.00    -0.031 C 
ATOM      8  C   UNL A   1      35.433 -39.884 -31.149  0.00  0.00    -0.049 C 
ATOM      9  C   UNL A   1      35.351 -41.162 -30.356  0.00  0.00    -0.049 C 
ATOM     10  C   UNL A   1      33.913 -41.275 -29.934  0.00  0.00    -0.029 C 
ATOM     11  C   UNL A   1      33.599 -42.511 -28.917  0.00  0.00    -0.025 C 
ATOM     12  C   UNL A   1      34.839 -42.871 -28.063  0.00  0.00    -0.059 C 
ATOM     13  C   UNL A   1      33.189 -43.739 -29.760  0.00  0.00    -0.044 C 
ATOM     14  C   UNL A   1      32.846 -44.991 -28.954  0.00  0.00    -0.015 C 
ATOM     15  C   UNL A   1      32.158 -44.792 -27.592  0.00  0.00    +0.109 C 
ATOM     16  C   UNL A   1      31.633 -43.356 -27.261  0.00  0.00    +0.006 C 
ATOM     17  C   UNL A   1      30.141 -43.327 -27.729  0.00  0.00    -0.056 C 
ATOM     18  C   UNL A   1      31.578 -43.118 -25.735  0.00  0.00    -0.056 C 
ATOM     19  C   UNL A   1      32.371 -42.179 -28.024  0.00  0.00    -0.027 C 
ATOM     20  C   UNL A   1      32.611 -40.900 -27.214  0.00  0.00    -0.049 C 
ATOM     21  C   UNL A   1      33.468 -39.869 -27.939  0.00  0.00    -0.047 C 
ATOM     22  C   UNL A   1      33.338 -39.831 -29.510  0.00  0.00    -0.023 C 
ATOM     23  C   UNL A   1      31.871 -39.899 -30.085  0.00  0.00    -0.059 C 
ATOM     24  C   UNL A   1      34.208 -38.251 -29.979  0.00  0.00    -0.020 C 
ATOM     25  C   UNL A   1      32.486 -37.481 -29.390  0.00  0.00    -0.059 C 
ATOM     26  C   UNL A   1      33.716 -37.553 -31.485  0.00  0.00    -0.009 C 
ATOM     27  C   UNL A   1      34.351 -36.128 -31.638  0.00  0.00    +0.110 C 
ENDROOT
BRANCH   1  29
ATOM     28  C   UNL A   1      37.228 -37.757 -27.838  0.00  0.00    -0.099 C 
ATOM     29  C   UNL A   1      38.016 -37.857 -28.923  0.00  0.00    -0.076 C 
ATOM     30  C   UNL A   1      39.455 -38.258 -28.697  0.00  0.00    -0.044 C 
ENDBRANCH   1  29
BRANCH  15  31
ATOM     31  O   UNL A   1      33.106 -45.256 -26.583  0.00  0.00    -0.457 OA
BRANCH  31  32
ATOM     32  C   UNL A   1      33.179 -46.500 -26.047  0.00  0.00    +0.339 C 
ATOM     33  O   UNL A   1      33.442 -47.485 -26.725  0.00  0.00    -0.245 OA
BRANCH  32  34
ATOM     34  C   UNL A   1      32.975 -46.665 -24.595  0.00  0.00    +0.059 A 
ATOM     35  C   UNL A   1      31.725 -46.350 -24.051  0.00  0.00    -0.047 A 
ATOM     36  C   UNL A   1      31.506 -46.492 -22.680  0.00  0.00    -0.047 A 
ATOM     37  C   UNL A   1      32.547 -46.923 -21.858  0.00  0.00    +0.018 A 
ATOM     38 BR   UNL A   1      32.250 -47.123 -20.002  0.00  0.00    -0.050 Br
ATOM     39  C   UNL A   1      33.808 -47.201 -22.391  0.00  0.00    -0.047 A 
ATOM     40  C   UNL A   1      34.029 -47.061 -23.764  0.00  0.00    -0.047 A 
ENDBRANCH  32  34
ENDBRANCH  31  32
ENDBRANCH  15  31
BRANCH  27  41
ATOM     41  O   UNL A   1      33.463 -35.075 -31.233  0.00  0.00    -0.457 OA
BRANCH  41  42
ATOM     42  C   UNL A   1      33.159 -34.130 -32.152  0.00  0.00    +0.339 C 
ATOM     43  O   UNL A   1      33.510 -34.115 -33.320  0.00  0.00    -0.245 OA
BRANCH  42  44
ATOM     44  C   UNL A   1      32.280 -33.102 -31.535  0.00  0.00    +0.059 A 
ATOM     45  C   UNL A   1      30.890 -33.270 -31.443  0.00  0.00    -0.047 A 
ATOM     46  C   UNL A   1      30.099 -32.285 -30.846  0.00  0.00    -0.047 A 
ATOM     47  C   UNL A   1      30.697 -31.131 -30.342  0.00  0.00    +0.018 A 
ATOM     48 BR   UNL A   1      29.626 -29.797 -29.537  0.00  0.00    -0.050 Br
ATOM     49  C   UNL A   1      32.079 -30.955 -30.423  0.00  0.00    -0.047 A 
ATOM     50  C   UNL A   1      32.871 -31.942 -31.016  0.00  0.00    -0.047 A 
ENDBRANCH  42  44
ENDBRANCH  41  42
ENDBRANCH  27  41
TORSDOF 7
ENDMDL
MODEL 9
REMARK VINA RESULT:    -8.287     15.858     18.143
REMARK INTER + INTRA:         -14.084
REMARK INTER:                 -11.562
REMARK INTRA:                  -2.522
REMARK UNBOUND:                -2.406
REMARK  Name = cpd365.pdb
REMARK  14 active torsions:
REMARK  status: ('A' for Active; 'I' for Inactive)
REMARK    1  A    between atoms: C_2  and  C_3
REMARK    2  A    between atoms: C_2  and  C_4
REMARK    3  A    between atoms: C_7  and  C_8
REMARK    4  A    between atoms: C_14  and  C_15
REMARK    5  A    between atoms: C_18  and  O_19
REMARK    6  A    between atoms: O_19  and  C_20
REMARK    7  A    between atoms: C_20  and  C_22
REMARK    8  A    between atoms: C_29  and  C_30
REMARK    9  A    between atoms: C_29  and  C_31
REMARK   10  A    between atoms: C_35  and  C_36
REMARK   11  A    between atoms: C_37  and  C_38
REMARK   12  A    between atoms: C_40  and  O_41
REMARK   13  A    between atoms: O_41  and  C_42
REMARK   14  A    between atoms: C_42  and  C_44
REMARK                            x       y       z     vdW  Elec       q    Type
REMARK                         _______ _______ _______ _____ _____    ______ ____
ROOT
ATOM      1  C   UNL A   1      45.010 -19.595 -35.364  0.00  0.00    -0.017 C 
ATOM      2  C   UNL A   1      46.359 -19.761 -36.137  0.00  0.00    -0.046 C 
ATOM      3  C   UNL A   1      46.023 -20.293 -37.545  0.00  0.00    -0.043 C 
ATOM      4  C   UNL A   1      44.564 -19.872 -37.781  0.00  0.00    +0.009 C 
ATOM      5  C   UNL A   1      44.545 -18.392 -38.218  0.00  0.00    -0.056 C 
ATOM      6  C   UNL A   1      43.976 -20.146 -36.387  0.00  0.00    -0.022 C 
ATOM      7  C   UNL A   1      42.357 -19.939 -36.292  0.00  0.00    -0.031 C 
ATOM      8  C   UNL A   1      41.984 -21.034 -35.206  0.00  0.00    -0.049 C 
ATOM      9  C   UNL A   1      40.929 -20.532 -34.255  0.00  0.00    -0.049 C 
ATOM     10  C   UNL A   1      39.726 -20.250 -35.111  0.00  0.00    -0.029 C 
ATOM     11  C   UNL A   1      38.487 -19.538 -34.327  0.00  0.00    -0.025 C 
ATOM     12  C   UNL A   1      38.984 -18.687 -33.134  0.00  0.00    -0.059 C 
ATOM     13  C   UNL A   1      37.544 -20.645 -33.804  0.00  0.00    -0.044 C 
ATOM     14  C   UNL A   1      36.314 -20.145 -33.049  0.00  0.00    -0.015 C 
ATOM     15  C   UNL A   1      35.679 -18.825 -33.524  0.00  0.00    +0.109 C 
ATOM     16  C   UNL A   1      36.177 -18.244 -34.887  0.00  0.00    +0.006 C 
ATOM     17  C   UNL A   1      35.202 -18.805 -35.975  0.00  0.00    -0.056 C 
ATOM     18  C   UNL A   1      35.995 -16.710 -34.942  0.00  0.00    -0.056 C 
ATOM     19  C   UNL A   1      37.637 -18.689 -35.315  0.00  0.00    -0.027 C 
ATOM     20  C   UNL A   1      38.494 -17.616 -35.994  0.00  0.00    -0.049 C 
ATOM     21  C   UNL A   1      39.938 -18.046 -36.230  0.00  0.00    -0.047 C 
ATOM     22  C   UNL A   1      40.175 -19.580 -36.506  0.00  0.00    -0.023 C 
ATOM     23  C   UNL A   1      39.175 -20.264 -37.516  0.00  0.00    -0.059 C 
ATOM     24  C   UNL A   1      41.939 -19.645 -37.104  0.00  0.00    -0.020 C 
ATOM     25  C   UNL A   1      41.078 -19.039 -38.776  0.00  0.00    -0.059 C 
ATOM     26  C   UNL A   1      42.334 -21.005 -38.099  0.00  0.00    -0.009 C 
ATOM     27  C   UNL A   1      43.763 -20.813 -38.714  0.00  0.00    +0.110 C 
ENDROOT
BRANCH   1  29
ATOM     28  C   UNL A   1      45.377 -17.090 -34.971  0.00  0.00    -0.099 C 
ATOM     29  C   UNL A   1      44.761 -18.250 -34.684  0.00  0.00    -0.076 C 
ATOM     30  C   UNL A   1      43.827 -18.261 -33.496  0.00  0.00    -0.044 C 
ENDBRANCH   1  29
BRANCH  15  31
ATOM     31  O   UNL A   1      35.866 -17.867 -32.438  0.00  0.00    -0.457 OA
BRANCH  31  32
ATOM     32  C   UNL A   1      34.897 -17.179 -31.784  0.00  0.00    +0.339 C 
ATOM     33  O   UNL A   1      35.153 -16.410 -30.866  0.00  0.00    -0.245 OA
BRANCH  32  34
ATOM     34  C   UNL A   1      33.495 -17.333 -32.218  0.00  0.00    +0.059 A 
ATOM     35  C   UNL A   1      32.962 -16.401 -33.116  0.00  0.00    -0.047 A 
ATOM     36  C   UNL A   1      31.637 -16.521 -33.539  0.00  0.00    -0.047 A 
ATOM     37  C   UNL A   1      30.846 -17.555 -33.040  0.00  0.00    +0.018 A 
ATOM     38 BR   UNL A   1      29.054 -17.723 -33.619  0.00  0.00    -0.050 Br
ATOM     39  C   UNL A   1      31.362 -18.464 -32.113  0.00  0.00    -0.047 A 
ATOM     40  C   UNL A   1      32.689 -18.348 -31.690  0.00  0.00    -0.047 A 
ENDBRANCH  32  34
ENDBRANCH  31  32
ENDBRANCH  15  31
BRANCH  27  41
ATOM     41  O   UNL A   1      43.731 -20.264 -40.040  0.00  0.00    -0.457 OA
BRANCH  41  42
ATOM     42  C   UNL A   1      44.015 -21.101 -41.065  0.00  0.00    +0.339 C 
ATOM     43  O   UNL A   1      43.229 -21.517 -41.901  0.00  0.00    -0.245 OA
BRANCH  42  44
ATOM     44  C   UNL A   1      45.466 -21.424 -41.054  0.00  0.00    +0.059 A 
ATOM     45  C   UNL A   1      45.955 -22.631 -40.533  0.00  0.00    -0.047 A 
ATOM     46  C   UNL A   1      47.325 -22.902 -40.551  0.00  0.00    -0.047 A 
ATOM     47  C   UNL A   1      48.208 -21.966 -41.087  0.00  0.00    +0.018 A 
ATOM     48 BR   UNL A   1      50.062 -22.332 -41.107  0.00  0.00    -0.050 Br
ATOM     49  C   UNL A   1      47.733 -20.764 -41.612  0.00  0.00    -0.047 A 
ATOM     50  C   UNL A   1      46.361 -20.495 -41.599  0.00  0.00    -0.047 A 
ENDBRANCH  42  44
ENDBRANCH  41  42
ENDBRANCH  27  41
TORSDOF 7
ENDMDL
MODEL 10
REMARK VINA RESULT:    -8.230     26.771     33.471
REMARK INTER + INTRA:         -14.003
REMARK INTER:                 -11.656
REMARK INTRA:                  -2.348
REMARK UNBOUND:                -2.406
REMARK  Name = cpd365.pdb
REMARK  14 active torsions:
REMARK  status: ('A' for Active; 'I' for Inactive)
REMARK    1  A    between atoms: C_2  and  C_3
REMARK    2  A    between atoms: C_2  and  C_4
REMARK    3  A    between atoms: C_7  and  C_8
REMARK    4  A    between atoms: C_14  and  C_15
REMARK    5  A    between atoms: C_18  and  O_19
REMARK    6  A    between atoms: O_19  and  C_20
REMARK    7  A    between atoms: C_20  and  C_22
REMARK    8  A    between atoms: C_29  and  C_30
REMARK    9  A    between atoms: C_29  and  C_31
REMARK   10  A    between atoms: C_35  and  C_36
REMARK   11  A    between atoms: C_37  and  C_38
REMARK   12  A    between atoms: C_40  and  O_41
REMARK   13  A    between atoms: O_41  and  C_42
REMARK   14  A    between atoms: C_42  and  C_44
REMARK                            x       y       z     vdW  Elec       q    Type
REMARK                         _______ _______ _______ _____ _____    ______ ____
ROOT
ATOM      1  C   UNL A   1      50.397 -49.920 -47.627  0.00  0.00    -0.017 C 
ATOM      2  C   UNL A   1      48.947 -49.562 -48.092  0.00  0.00    -0.046 C 
ATOM      3  C   UNL A   1      48.862 -48.026 -48.204  0.00  0.00    -0.043 C 
ATOM      4  C   UNL A   1      50.317 -47.571 -48.398  0.00  0.00    +0.009 C 
ATOM      5  C   UNL A   1      50.697 -47.766 -49.881  0.00  0.00    -0.056 C 
ATOM      6  C   UNL A   1      51.028 -48.514 -47.415  0.00  0.00    -0.022 C 
ATOM      7  C   UNL A   1      52.627 -48.218 -47.243  0.00  0.00    -0.031 C 
ATOM      8  C   UNL A   1      52.841 -48.630 -45.726  0.00  0.00    -0.049 C 
ATOM      9  C   UNL A   1      54.145 -49.359 -45.530  0.00  0.00    -0.049 C 
ATOM     10  C   UNL A   1      55.211 -48.379 -45.934  0.00  0.00    -0.029 C 
ATOM     11  C   UNL A   1      56.721 -48.992 -45.961  0.00  0.00    -0.025 C 
ATOM     12  C   UNL A   1      56.711 -50.512 -46.255  0.00  0.00    -0.059 C 
ATOM     13  C   UNL A   1      57.369 -48.746 -44.580  0.00  0.00    -0.044 C 
ATOM     14  C   UNL A   1      58.803 -49.253 -44.438  0.00  0.00    -0.015 C 
ATOM     15  C   UNL A   1      59.709 -49.176 -45.680  0.00  0.00    +0.109 C 
ATOM     16  C   UNL A   1      59.177 -48.355 -46.901  0.00  0.00    +0.006 C 
ATOM     17  C   UNL A   1      59.740 -46.906 -46.720  0.00  0.00    -0.056 C 
ATOM     18  C   UNL A   1      59.793 -48.859 -48.226  0.00  0.00    -0.056 C 
ATOM     19  C   UNL A   1      57.601 -48.221 -46.986  0.00  0.00    -0.027 C 
ATOM     20  C   UNL A   1      56.996 -48.294 -48.392  0.00  0.00    -0.049 C 
ATOM     21  C   UNL A   1      55.471 -48.329 -48.400  0.00  0.00    -0.047 C 
ATOM     22  C   UNL A   1      54.747 -47.552 -47.236  0.00  0.00    -0.023 C 
ATOM     23  C   UNL A   1      55.309 -46.115 -46.908  0.00  0.00    -0.059 C 
ATOM     24  C   UNL A   1      52.967 -47.505 -47.788  0.00  0.00    -0.020 C 
ATOM     25  C   UNL A   1      53.667 -46.036 -48.910  0.00  0.00    -0.059 C 
ATOM     26  C   UNL A   1      52.022 -46.212 -47.131  0.00  0.00    -0.009 C 
ATOM     27  C   UNL A   1      50.630 -46.157 -47.850  0.00  0.00    +0.110 C 
ENDROOT
BRANCH   1  29
ATOM     28  C   UNL A   1      50.885 -51.326 -49.712  0.00  0.00    -0.099 C 
ATOM     29  C   UNL A   1      51.146 -50.972 -48.442  0.00  0.00    -0.076 C 
ATOM     30  C   UNL A   1      52.192 -51.774 -47.702  0.00  0.00    -0.044 C 
ENDBRANCH   1  29
BRANCH  15  31
ATOM     31  O   UNL A   1      60.004 -50.556 -46.057  0.00  0.00    -0.457 OA
BRANCH  31  32
ATOM     32  C   UNL A   1      60.903 -51.385 -45.471  0.00  0.00    +0.339 C 
ATOM     33  O   UNL A   1      60.592 -52.139 -44.558  0.00  0.00    -0.245 OA
BRANCH  32  34
ATOM     34  C   UNL A   1      62.290 -51.406 -45.975  0.00  0.00    +0.059 A 
ATOM     35  C   UNL A   1      62.810 -50.247 -46.562  0.00  0.00    -0.047 A 
ATOM     36  C   UNL A   1      64.117 -50.241 -47.051  0.00  0.00    -0.047 A 
ATOM     37  C   UNL A   1      64.886 -51.402 -46.975  0.00  0.00    +0.018 A 
ATOM     38 BR   UNL A   1      66.659 -51.392 -47.630  0.00  0.00    -0.050 Br
ATOM     39  C   UNL A   1      64.357 -52.572 -46.425  0.00  0.00    -0.047 A 
ATOM     40  C   UNL A   1      63.050 -52.580 -45.932  0.00  0.00    -0.047 A 
ENDBRANCH  32  34
ENDBRANCH  31  32
ENDBRANCH  15  31
BRANCH  27  41
ATOM     41  O   UNL A   1      50.594 -45.204 -48.923  0.00  0.00    -0.457 OA
BRANCH  41  42
ATOM     42  C   UNL A   1      49.795 -44.123 -48.767  0.00  0.00    +0.339 C 
ATOM     43  O   UNL A   1      49.989 -43.180 -48.018  0.00  0.00    -0.245 OA
BRANCH  42  44
ATOM     44  C   UNL A   1      48.634 -44.228 -49.689  0.00  0.00    +0.059 A 
ATOM     45  C   UNL A   1      47.312 -44.092 -49.238  0.00  0.00    -0.047 A 
ATOM     46  C   UNL A   1      46.247 -44.187 -50.138  0.00  0.00    -0.047 A 
ATOM     47  C   UNL A   1      46.503 -44.419 -51.488  0.00  0.00    +0.018 A 
ATOM     48 BR   UNL A   1      45.061 -44.551 -52.705  0.00  0.00    -0.050 Br
ATOM     49  C   UNL A   1      47.813 -44.551 -51.949  0.00  0.00    -0.047 A 
ATOM     50  C   UNL A   1      48.878 -44.452 -51.050  0.00  0.00    -0.047 A 
ENDBRANCH  42  44
ENDBRANCH  41  42
ENDBRANCH  27  41
TORSDOF 7
ENDMDL
MODEL 11
REMARK VINA RESULT:    -8.188      3.417      5.808
REMARK INTER + INTRA:         -13.944
REMARK INTER:                 -11.725
REMARK INTRA:                  -2.219
REMARK UNBOUND:                -2.406
REMARK  Name = cpd365.pdb
REMARK  14 active torsions:
REMARK  status: ('A' for Active; 'I' for Inactive)
REMARK    1  A    between atoms: C_2  and  C_3
REMARK    2  A    between atoms: C_2  and  C_4
REMARK    3  A    between atoms: C_7  and  C_8
REMARK    4  A    between atoms: C_14  and  C_15
REMARK    5  A    between atoms: C_18  and  O_19
REMARK    6  A    between atoms: O_19  and  C_20
REMARK    7  A    between atoms: C_20  and  C_22
REMARK    8  A    between atoms: C_29  and  C_30
REMARK    9  A    between atoms: C_29  and  C_31
REMARK   10  A    between atoms: C_35  and  C_36
REMARK   11  A    between atoms: C_37  and  C_38
REMARK   12  A    between atoms: C_40  and  O_41
REMARK   13  A    between atoms: O_41  and  C_42
REMARK   14  A    between atoms: C_42  and  C_44
REMARK                            x       y       z     vdW  Elec       q    Type
REMARK                         _______ _______ _______ _____ _____    ______ ____
ROOT
ATOM      1  C   UNL A   1      37.398 -36.769 -29.232  0.00  0.00    -0.017 C 
ATOM      2  C   UNL A   1      38.466 -37.895 -29.037  0.00  0.00    -0.046 C 
ATOM      3  C   UNL A   1      37.710 -39.200 -28.713  0.00  0.00    -0.043 C 
ATOM      4  C   UNL A   1      36.303 -38.987 -29.293  0.00  0.00    +0.009 C 
ATOM      5  C   UNL A   1      36.351 -39.264 -30.810  0.00  0.00    -0.056 C 
ATOM      6  C   UNL A   1      36.073 -37.517 -28.908  0.00  0.00    -0.022 C 
ATOM      7  C   UNL A   1      34.573 -36.962 -29.251  0.00  0.00    -0.031 C 
ATOM      8  C   UNL A   1      34.367 -35.921 -28.072  0.00  0.00    -0.049 C 
ATOM      9  C   UNL A   1      33.668 -34.675 -28.551  0.00  0.00    -0.049 C 
ATOM     10  C   UNL A   1      32.327 -35.140 -29.045  0.00  0.00    -0.029 C 
ATOM     11  C   UNL A   1      31.433 -33.984 -29.769  0.00  0.00    -0.025 C 
ATOM     12  C   UNL A   1      32.326 -32.900 -30.419  0.00  0.00    -0.059 C 
ATOM     13  C   UNL A   1      30.533 -33.326 -28.698  0.00  0.00    -0.044 C 
ATOM     14  C   UNL A   1      29.615 -32.221 -29.216  0.00  0.00    -0.015 C 
ATOM     15  C   UNL A   1      29.043 -32.380 -30.636  0.00  0.00    +0.109 C 
ATOM     16  C   UNL A   1      29.233 -33.769 -31.330  0.00  0.00    +0.006 C 
ATOM     17  C   UNL A   1      27.946 -34.594 -30.997  0.00  0.00    -0.056 C 
ATOM     18  C   UNL A   1      29.231 -33.630 -32.870  0.00  0.00    -0.056 C 
ATOM     19  C   UNL A   1      30.464 -34.618 -30.806  0.00  0.00    -0.027 C 
ATOM     20  C   UNL A   1      31.237 -35.405 -31.869  0.00  0.00    -0.049 C 
ATOM     21  C   UNL A   1      32.505 -36.067 -31.339  0.00  0.00    -0.047 C 
ATOM     22  C   UNL A   1      32.472 -36.536 -29.835  0.00  0.00    -0.023 C 
ATOM     23  C   UNL A   1      31.166 -37.292 -29.374  0.00  0.00    -0.059 C 
ATOM     24  C   UNL A   1      33.995 -37.599 -29.679  0.00  0.00    -0.020 C 
ATOM     25  C   UNL A   1      32.806 -38.908 -30.560  0.00  0.00    -0.059 C 
ATOM     26  C   UNL A   1      33.946 -38.784 -28.419  0.00  0.00    -0.009 C 
ATOM     27  C   UNL A   1      35.177 -39.746 -28.551  0.00  0.00    +0.110 C 
ENDROOT
BRANCH   1  29
ATOM     28  C   UNL A   1      36.656 -34.954 -30.881  0.00  0.00    -0.099 C 
ATOM     29  C   UNL A   1      37.502 -35.928 -30.503  0.00  0.00    -0.076 C 
ATOM     30  C   UNL A   1      38.588 -36.319 -31.479  0.00  0.00    -0.044 C 
ENDBRANCH   1  29
BRANCH  15  31
ATOM     31  O   UNL A   1      29.624 -31.304 -31.434  0.00  0.00    -0.457 OA
BRANCH  31  32
ATOM     32  C   UNL A   1      29.016 -30.151 -31.811  0.00  0.00    +0.339 C 
ATOM     33  O   UNL A   1      29.041 -29.753 -32.969  0.00  0.00    -0.245 OA
BRANCH  32  34
ATOM     34  C   UNL A   1      28.269 -29.375 -30.803  0.00  0.00    +0.059 A 
ATOM     35  C   UNL A   1      26.871 -29.432 -30.810  0.00  0.00    -0.047 A 
ATOM     36  C   UNL A   1      26.139 -28.704 -29.870  0.00  0.00    -0.047 A 
ATOM     37  C   UNL A   1      26.810 -27.901 -28.948  0.00  0.00    +0.018 A 
ATOM     38 BR   UNL A   1      25.821 -26.920 -27.670  0.00  0.00    -0.050 Br
ATOM     39  C   UNL A   1      28.204 -27.810 -28.963  0.00  0.00    -0.047 A 
ATOM     40  C   UNL A   1      28.939 -28.540 -29.901  0.00  0.00    -0.047 A 
ENDBRANCH  32  34
ENDBRANCH  31  32
ENDBRANCH  15  31
BRANCH  27  41
ATOM     41  O   UNL A   1      34.865 -40.957 -29.256  0.00  0.00    -0.457 OA
BRANCH  41  42
ATOM     42  C   UNL A   1      34.828 -42.103 -28.538  0.00  0.00    +0.339 C 
ATOM     43  O   UNL A   1      35.587 -42.419 -27.637  0.00  0.00    -0.245 OA
BRANCH  42  44
ATOM     44  C   UNL A   1      33.677 -42.932 -28.985  0.00  0.00    +0.059 A 
ATOM     45  C   UNL A   1      32.775 -42.486 -29.962  0.00  0.00    -0.047 A 
ATOM     46  C   UNL A   1      31.712 -43.298 -30.363  0.00  0.00    -0.047 A 
ATOM     47  C   UNL A   1      31.548 -44.556 -29.786  0.00  0.00    +0.018 A 
ATOM     48 BR   UNL A   1      30.107 -45.654 -30.326  0.00  0.00    -0.050 Br
ATOM     49  C   UNL A   1      32.441 -45.012 -28.815  0.00  0.00    -0.047 A 
ATOM     50  C   UNL A   1      33.508 -44.201 -28.418  0.00  0.00    -0.047 A 
ENDBRANCH  42  44
ENDBRANCH  41  42
ENDBRANCH  27  41
TORSDOF 7
ENDMDL
MODEL 12
REMARK VINA RESULT:    -8.052     26.866     33.047
REMARK INTER + INTRA:         -13.753
REMARK INTER:                 -11.255
REMARK INTRA:                  -2.497
REMARK UNBOUND:                -2.406
REMARK  Name = cpd365.pdb
REMARK  14 active torsions:
REMARK  status: ('A' for Active; 'I' for Inactive)
REMARK    1  A    between atoms: C_2  and  C_3
REMARK    2  A    between atoms: C_2  and  C_4
REMARK    3  A    between atoms: C_7  and  C_8
REMARK    4  A    between atoms: C_14  and  C_15
REMARK    5  A    between atoms: C_18  and  O_19
REMARK    6  A    between atoms: O_19  and  C_20
REMARK    7  A    between atoms: C_20  and  C_22
REMARK    8  A    between atoms: C_29  and  C_30
REMARK    9  A    between atoms: C_29  and  C_31
REMARK   10  A    between atoms: C_35  and  C_36
REMARK   11  A    between atoms: C_37  and  C_38
REMARK   12  A    between atoms: C_40  and  O_41
REMARK   13  A    between atoms: O_41  and  C_42
REMARK   14  A    between atoms: C_42  and  C_44
REMARK                            x       y       z     vdW  Elec       q    Type
REMARK                         _______ _______ _______ _____ _____    ______ ____
ROOT
ATOM      1  C   UNL A   1      50.378 -49.615 -47.615  0.00  0.00    -0.017 C 
ATOM      2  C   UNL A   1      48.954 -49.177 -48.092  0.00  0.00    -0.046 C 
ATOM      3  C   UNL A   1      48.964 -47.641 -48.228  0.00  0.00    -0.043 C 
ATOM      4  C   UNL A   1      50.444 -47.278 -48.423  0.00  0.00    +0.009 C 
ATOM      5  C   UNL A   1      50.818 -47.519 -49.901  0.00  0.00    -0.056 C 
ATOM      6  C   UNL A   1      51.094 -48.248 -47.422  0.00  0.00    -0.022 C 
ATOM      7  C   UNL A   1      52.707 -48.048 -47.247  0.00  0.00    -0.031 C 
ATOM      8  C   UNL A   1      52.890 -48.449 -45.723  0.00  0.00    -0.049 C 
ATOM      9  C   UNL A   1      54.146 -49.254 -45.511  0.00  0.00    -0.049 C 
ATOM     10  C   UNL A   1      55.271 -48.347 -45.925  0.00  0.00    -0.029 C 
ATOM     11  C   UNL A   1      56.741 -49.052 -45.936  0.00  0.00    -0.025 C 
ATOM     12  C   UNL A   1      56.639 -50.572 -46.207  0.00  0.00    -0.059 C 
ATOM     13  C   UNL A   1      57.398 -48.825 -44.556  0.00  0.00    -0.044 C 
ATOM     14  C   UNL A   1      58.798 -49.416 -44.400  0.00  0.00    -0.015 C 
ATOM     15  C   UNL A   1      59.711 -49.414 -45.640  0.00  0.00    +0.109 C 
ATOM     16  C   UNL A   1      59.235 -48.581 -46.875  0.00  0.00    +0.006 C 
ATOM     17  C   UNL A   1      59.885 -47.167 -46.713  0.00  0.00    -0.056 C 
ATOM     18  C   UNL A   1      59.824 -49.142 -48.189  0.00  0.00    -0.056 C 
ATOM     19  C   UNL A   1      57.670 -48.352 -46.969  0.00  0.00    -0.027 C 
ATOM     20  C   UNL A   1      57.067 -48.410 -48.376  0.00  0.00    -0.049 C 
ATOM     21  C   UNL A   1      55.543 -48.351 -48.391  0.00  0.00    -0.047 C 
ATOM     22  C   UNL A   1      54.864 -47.513 -47.241  0.00  0.00    -0.023 C 
ATOM     23  C   UNL A   1      55.512 -46.108 -46.933  0.00  0.00    -0.059 C 
ATOM     24  C   UNL A   1      53.092 -47.365 -47.801  0.00  0.00    -0.020 C 
ATOM     25  C   UNL A   1      53.885 -45.960 -48.942  0.00  0.00    -0.059 C 
ATOM     26  C   UNL A   1      52.226 -46.007 -47.168  0.00  0.00    -0.009 C 
ATOM     27  C   UNL A   1      50.842 -45.878 -47.895  0.00  0.00    +0.110 C 
ENDROOT
BRANCH   1  29
ATOM     28  C   UNL A   1      50.756 -51.111 -49.661  0.00  0.00    -0.099 C 
ATOM     29  C   UNL A   1      51.064 -50.724 -48.411  0.00  0.00    -0.076 C 
ATOM     30  C   UNL A   1      52.098 -51.540 -47.670  0.00  0.00    -0.044 C 
ENDBRANCH   1  29
BRANCH  15  31
ATOM     31  O   UNL A   1      59.922 -50.815 -45.994  0.00  0.00    -0.457 OA
BRANCH  31  32
ATOM     32  C   UNL A   1      60.970 -51.597 -45.632  0.00  0.00    +0.339 C 
ATOM     33  O   UNL A   1      62.107 -51.384 -46.031  0.00  0.00    -0.245 OA
BRANCH  32  34
ATOM     34  C   UNL A   1      60.737 -52.715 -44.696  0.00  0.00    +0.059 A 
ATOM     35  C   UNL A   1      60.040 -52.465 -43.509  0.00  0.00    -0.047 A 
ATOM     36  C   UNL A   1      59.809 -53.503 -42.605  0.00  0.00    -0.047 A 
ATOM     37  C   UNL A   1      60.302 -54.778 -42.881  0.00  0.00    +0.018 A 
ATOM     38 BR   UNL A   1      59.984 -56.186 -41.661  0.00  0.00    -0.050 Br
ATOM     39  C   UNL A   1      61.033 -55.023 -44.047  0.00  0.00    -0.047 A 
ATOM     40  C   UNL A   1      61.262 -53.986 -44.955  0.00  0.00    -0.047 A 
ENDBRANCH  32  34
ENDBRANCH  31  32
ENDBRANCH  15  31
BRANCH  27  41
ATOM     41  O   UNL A   1      50.868 -44.941 -48.982  0.00  0.00    -0.457 OA
BRANCH  41  42
ATOM     42  C   UNL A   1      50.046 -43.870 -48.899  0.00  0.00    +0.339 C 
ATOM     43  O   UNL A   1      50.245 -42.850 -48.260  0.00  0.00    -0.245 OA
BRANCH  42  44
ATOM     44  C   UNL A   1      48.848 -44.098 -49.750  0.00  0.00    +0.059 A 
ATOM     45  C   UNL A   1      47.545 -44.008 -49.237  0.00  0.00    -0.047 A 
ATOM     46  C   UNL A   1      46.444 -44.219 -50.071  0.00  0.00    -0.047 A 
ATOM     47  C   UNL A   1      46.645 -44.522 -51.417  0.00  0.00    +0.018 A 
ATOM     48 BR   UNL A   1      45.155 -44.811 -52.544  0.00  0.00    -0.050 Br
ATOM     49  C   UNL A   1      47.936 -44.609 -51.939  0.00  0.00    -0.047 A 
ATOM     50  C   UNL A   1      49.037 -44.394 -51.106  0.00  0.00    -0.047 A 
ENDBRANCH  42  44
ENDBRANCH  41  42
ENDBRANCH  27  41
TORSDOF 7
ENDMDL
MODEL 13
REMARK VINA RESULT:    -8.042     25.146     30.826
REMARK INTER + INTRA:         -13.739
REMARK INTER:                 -11.475
REMARK INTRA:                  -2.264
REMARK UNBOUND:                -2.406
REMARK  Name = cpd365.pdb
REMARK  14 active torsions:
REMARK  status: ('A' for Active; 'I' for Inactive)
REMARK    1  A    between atoms: C_2  and  C_3
REMARK    2  A    between atoms: C_2  and  C_4
REMARK    3  A    between atoms: C_7  and  C_8
REMARK    4  A    between atoms: C_14  and  C_15
REMARK    5  A    between atoms: C_18  and  O_19
REMARK    6  A    between atoms: O_19  and  C_20
REMARK    7  A    between atoms: C_20  and  C_22
REMARK    8  A    between atoms: C_29  and  C_30
REMARK    9  A    between atoms: C_29  and  C_31
REMARK   10  A    between atoms: C_35  and  C_36
REMARK   11  A    between atoms: C_37  and  C_38
REMARK   12  A    between atoms: C_40  and  O_41
REMARK   13  A    between atoms: O_41  and  C_42
REMARK   14  A    between atoms: C_42  and  C_44
REMARK                            x       y       z     vdW  Elec       q    Type
REMARK                         _______ _______ _______ _____ _____    ______ ____
ROOT
ATOM      1  C   UNL A   1      59.591 -47.707 -46.015  0.00  0.00    -0.017 C 
ATOM      2  C   UNL A   1      60.935 -48.347 -45.535  0.00  0.00    -0.046 C 
ATOM      3  C   UNL A   1      60.583 -49.620 -44.739  0.00  0.00    -0.043 C 
ATOM      4  C   UNL A   1      59.192 -50.025 -45.250  0.00  0.00    +0.009 C 
ATOM      5  C   UNL A   1      59.361 -50.778 -46.588  0.00  0.00    -0.056 C 
ATOM      6  C   UNL A   1      58.532 -48.641 -45.362  0.00  0.00    -0.022 C 
ATOM      7  C   UNL A   1      56.946 -48.686 -45.758  0.00  0.00    -0.031 C 
ATOM      8  C   UNL A   1      56.413 -47.409 -44.982  0.00  0.00    -0.049 C 
ATOM      9  C   UNL A   1      55.395 -46.654 -45.797  0.00  0.00    -0.049 C 
ATOM     10  C   UNL A   1      54.261 -47.618 -46.006  0.00  0.00    -0.029 C 
ATOM     11  C   UNL A   1      53.090 -47.082 -47.006  0.00  0.00    -0.025 C 
ATOM     12  C   UNL A   1      53.646 -46.079 -48.044  0.00  0.00    -0.059 C 
ATOM     13  C   UNL A   1      52.008 -46.383 -46.152  0.00  0.00    -0.044 C 
ATOM     14  C   UNL A   1      50.822 -45.828 -46.939  0.00  0.00    -0.015 C 
ATOM     15  C   UNL A   1      50.361 -46.617 -48.179  0.00  0.00    +0.109 C 
ATOM     16  C   UNL A   1      50.968 -48.044 -48.381  0.00  0.00    +0.006 C 
ATOM     17  C   UNL A   1      49.968 -49.035 -47.698  0.00  0.00    -0.056 C 
ATOM     18  C   UNL A   1      50.969 -48.445 -49.874  0.00  0.00    -0.056 C 
ATOM     19  C   UNL A   1      52.377 -48.279 -47.697  0.00  0.00    -0.027 C 
ATOM     20  C   UNL A   1      53.376 -49.127 -48.491  0.00  0.00    -0.049 C 
ATOM     21  C   UNL A   1      54.766 -49.181 -47.866  0.00  0.00    -0.047 C 
ATOM     22  C   UNL A   1      54.830 -49.098 -46.293  0.00  0.00    -0.023 C 
ATOM     23  C   UNL A   1      53.789 -49.989 -45.511  0.00  0.00    -0.059 C 
ATOM     24  C   UNL A   1      56.592 -49.566 -45.906  0.00  0.00    -0.020 C 
ATOM     25  C   UNL A   1      55.861 -51.377 -46.209  0.00  0.00    -0.059 C 
ATOM     26  C   UNL A   1      56.855 -50.213 -44.321  0.00  0.00    -0.009 C 
ATOM     27  C   UNL A   1      58.316 -50.772 -44.216  0.00  0.00    +0.110 C 
ENDROOT
BRANCH   1  29
ATOM     28  C   UNL A   1      60.231 -47.862 -48.491  0.00  0.00    -0.099 C 
ATOM     29  C   UNL A   1      59.481 -47.355 -47.497  0.00  0.00    -0.076 C 
ATOM     30  C   UNL A   1      58.524 -46.240 -47.853  0.00  0.00    -0.044 C 
ENDBRANCH   1  29
BRANCH  15  31
ATOM     31  O   UNL A   1      50.625 -45.759 -49.331  0.00  0.00    -0.457 OA
BRANCH  31  32
ATOM     32  C   UNL A   1      49.742 -44.942 -49.957  0.00  0.00    +0.339 C 
ATOM     33  O   UNL A   1      49.815 -44.704 -51.155  0.00  0.00    -0.245 OA
BRANCH  32  34
ATOM     34  C   UNL A   1      48.636 -44.355 -49.176  0.00  0.00    +0.059 A 
ATOM     35  C   UNL A   1      48.888 -43.215 -48.404  0.00  0.00    -0.047 A 
ATOM     36  C   UNL A   1      47.861 -42.641 -47.653  0.00  0.00    -0.047 A 
ATOM     37  C   UNL A   1      46.596 -43.228 -47.656  0.00  0.00    +0.018 A 
ATOM     38 BR   UNL A   1      45.203 -42.448 -46.645  0.00  0.00    -0.050 Br
ATOM     39  C   UNL A   1      46.350 -44.389 -48.393  0.00  0.00    -0.047 A 
ATOM     40  C   UNL A   1      47.376 -44.963 -49.149  0.00  0.00    -0.047 A 
ENDBRANCH  32  34
ENDBRANCH  31  32
ENDBRANCH  15  31
BRANCH  27  41
ATOM     41  O   UNL A   1      58.390 -52.187 -44.452  0.00  0.00    -0.457 OA
BRANCH  41  42
ATOM     42  C   UNL A   1      58.334 -53.000 -43.372  0.00  0.00    +0.339 C 
ATOM     43  O   UNL A   1      59.284 -53.468 -42.767  0.00  0.00    -0.245 OA
BRANCH  42  44
ATOM     44  C   UNL A   1      56.914 -53.222 -42.991  0.00  0.00    +0.059 A 
ATOM     45  C   UNL A   1      56.382 -52.730 -41.790  0.00  0.00    -0.047 A 
ATOM     46  C   UNL A   1      55.039 -52.951 -41.472  0.00  0.00    -0.047 A 
ATOM     47  C   UNL A   1      54.229 -53.664 -42.355  0.00  0.00    +0.018 A 
ATOM     48 BR   UNL A   1      52.413 -53.965 -41.923  0.00  0.00    -0.050 Br
ATOM     49  C   UNL A   1      54.746 -54.154 -43.554  0.00  0.00    -0.047 A 
ATOM     50  C   UNL A   1      56.088 -53.929 -43.874  0.00  0.00    -0.047 A 
ENDBRANCH  42  44
ENDBRANCH  41  42
ENDBRANCH  27  41
TORSDOF 7
ENDMDL
MODEL 14
REMARK VINA RESULT:    -8.012     20.763     23.848
REMARK INTER + INTRA:         -13.697
REMARK INTER:                 -11.717
REMARK INTRA:                  -1.981
REMARK UNBOUND:                -2.406
REMARK  Name = cpd365.pdb
REMARK  14 active torsions:
REMARK  status: ('A' for Active; 'I' for Inactive)
REMARK    1  A    between atoms: C_2  and  C_3
REMARK    2  A    between atoms: C_2  and  C_4
REMARK    3  A    between atoms: C_7  and  C_8
REMARK    4  A    between atoms: C_14  and  C_15
REMARK    5  A    between atoms: C_18  and  O_19
REMARK    6  A    between atoms: O_19  and  C_20
REMARK    7  A    between atoms: C_20  and  C_22
REMARK    8  A    between atoms: C_29  and  C_30
REMARK    9  A    between atoms: C_29  and  C_31
REMARK   10  A    between atoms: C_35  and  C_36
REMARK   11  A    between atoms: C_37  and  C_38
REMARK   12  A    between atoms: C_40  and  O_41
REMARK   13  A    between atoms: O_41  and  C_42
REMARK   14  A    between atoms: C_42  and  C_44
REMARK                            x       y       z     vdW  Elec       q    Type
REMARK                         _______ _______ _______ _____ _____    ______ ____
ROOT
ATOM      1  C   UNL A   1      42.339 -21.938 -39.370  0.00  0.00    -0.017 C 
ATOM      2  C   UNL A   1      41.192 -22.895 -38.904  0.00  0.00    -0.046 C 
ATOM      3  C   UNL A   1      40.415 -22.174 -37.784  0.00  0.00    -0.043 C 
ATOM      4  C   UNL A   1      40.693 -20.681 -38.018  0.00  0.00    +0.009 C 
ATOM      5  C   UNL A   1      39.758 -20.178 -39.139  0.00  0.00    -0.056 C 
ATOM      6  C   UNL A   1      42.183 -20.739 -38.391  0.00  0.00    -0.022 C 
ATOM      7  C   UNL A   1      42.883 -19.274 -38.581  0.00  0.00    -0.031 C 
ATOM      8  C   UNL A   1      44.358 -19.587 -38.088  0.00  0.00    -0.049 C 
ATOM      9  C   UNL A   1      45.385 -18.889 -38.942  0.00  0.00    -0.049 C 
ATOM     10  C   UNL A   1      45.107 -17.422 -38.778  0.00  0.00    -0.029 C 
ATOM     11  C   UNL A   1      45.995 -16.450 -39.738  0.00  0.00    -0.025 C 
ATOM     12  C   UNL A   1      46.403 -17.166 -41.048  0.00  0.00    -0.059 C 
ATOM     13  C   UNL A   1      47.270 -16.040 -38.966  0.00  0.00    -0.044 C 
ATOM     14  C   UNL A   1      48.215 -15.111 -39.725  0.00  0.00    -0.015 C 
ATOM     15  C   UNL A   1      47.584 -14.074 -40.671  0.00  0.00    +0.109 C 
ATOM     16  C   UNL A   1      46.034 -13.879 -40.583  0.00  0.00    +0.006 C 
ATOM     17  C   UNL A   1      45.806 -12.711 -39.568  0.00  0.00    -0.056 C 
ATOM     18  C   UNL A   1      45.458 -13.363 -41.922  0.00  0.00    -0.056 C 
ATOM     19  C   UNL A   1      45.231 -15.127 -40.027  0.00  0.00    -0.027 C 
ATOM     20  C   UNL A   1      43.881 -15.409 -40.696  0.00  0.00    -0.049 C 
ATOM     21  C   UNL A   1      43.233 -16.712 -40.240  0.00  0.00    -0.047 C 
ATOM     22  C   UNL A   1      43.519 -17.152 -38.753  0.00  0.00    -0.023 C 
ATOM     23  C   UNL A   1      43.412 -16.017 -37.663  0.00  0.00    -0.059 C 
ATOM     24  C   UNL A   1      42.293 -18.526 -38.466  0.00  0.00    -0.020 C 
ATOM     25  C   UNL A   1      41.077 -16.986 -38.228  0.00  0.00    -0.059 C 
ATOM     26  C   UNL A   1      41.860 -18.798 -36.811  0.00  0.00    -0.009 C 
ATOM     27  C   UNL A   1      40.665 -19.810 -36.738  0.00  0.00    +0.110 C 
ENDROOT
BRANCH   1  29
ATOM     28  C   UNL A   1      41.558 -22.022 -41.809  0.00  0.00    -0.099 C 
ATOM     29  C   UNL A   1      42.459 -21.681 -40.871  0.00  0.00    -0.076 C 
ATOM     30  C   UNL A   1      43.771 -21.104 -41.349  0.00  0.00    -0.044 C 
ENDBRANCH   1  29
BRANCH  15  31
ATOM     31  O   UNL A   1      47.997 -14.447 -42.022  0.00  0.00    -0.457 OA
BRANCH  31  32
ATOM     32  C   UNL A   1      49.024 -13.920 -42.733  0.00  0.00    +0.339 C 
ATOM     33  O   UNL A   1      50.191 -14.201 -42.492  0.00  0.00    -0.245 OA
BRANCH  32  34
ATOM     34  C   UNL A   1      48.724 -13.010 -43.856  0.00  0.00    +0.059 A 
ATOM     35  C   UNL A   1      48.485 -11.659 -43.582  0.00  0.00    -0.047 A 
ATOM     36  C   UNL A   1      48.195 -10.778 -44.625  0.00  0.00    -0.047 A 
ATOM     37  C   UNL A   1      48.116 -11.260 -45.931  0.00  0.00    +0.018 A 
ATOM     38 BR   UNL A   1      47.730 -10.067 -47.345  0.00  0.00    -0.050 Br
ATOM     39  C   UNL A   1      48.315 -12.616 -46.204  0.00  0.00    -0.047 A 
ATOM     40  C   UNL A   1      48.609 -13.499 -45.162  0.00  0.00    -0.047 A 
ENDBRANCH  32  34
ENDBRANCH  31  32
ENDBRANCH  15  31
BRANCH  27  41
ATOM     41  O   UNL A   1      39.390 -19.159 -36.625  0.00  0.00    -0.457 OA
BRANCH  41  42
ATOM     42  C   UNL A   1      38.851 -19.060 -35.388  0.00  0.00    +0.339 C 
ATOM     43  O   UNL A   1      38.031 -18.236 -35.018  0.00  0.00    -0.245 OA
BRANCH  42  44
ATOM     44  C   UNL A   1      39.383 -20.148 -34.526  0.00  0.00    +0.059 A 
ATOM     45  C   UNL A   1      38.891 -21.460 -34.596  0.00  0.00    -0.047 A 
ATOM     46  C   UNL A   1      39.424 -22.457 -33.777  0.00  0.00    -0.047 A 
ATOM     47  C   UNL A   1      40.449 -22.144 -32.886  0.00  0.00    +0.018 A 
ATOM     48 BR   UNL A   1      41.169 -23.494 -31.774  0.00  0.00    -0.050 Br
ATOM     49  C   UNL A   1      40.950 -20.844 -32.810  0.00  0.00    -0.047 A 
ATOM     50  C   UNL A   1      40.420 -19.847 -33.634  0.00  0.00    -0.047 A 
ENDBRANCH  42  44
ENDBRANCH  41  42
ENDBRANCH  27  41
TORSDOF 7
ENDMDL
MODEL 15
REMARK VINA RESULT:    -7.978     16.450     18.759
REMARK INTER + INTRA:         -13.649
REMARK INTER:                 -11.536
REMARK INTRA:                  -2.112
REMARK UNBOUND:                -2.406
REMARK  Name = cpd365.pdb
REMARK  14 active torsions:
REMARK  status: ('A' for Active; 'I' for Inactive)
REMARK    1  A    between atoms: C_2  and  C_3
REMARK    2  A    between atoms: C_2  and  C_4
REMARK    3  A    between atoms: C_7  and  C_8
REMARK    4  A    between atoms: C_14  and  C_15
REMARK    5  A    between atoms: C_18  and  O_19
REMARK    6  A    between atoms: O_19  and  C_20
REMARK    7  A    between atoms: C_20  and  C_22
REMARK    8  A    between atoms: C_29  and  C_30
REMARK    9  A    between atoms: C_29  and  C_31
REMARK   10  A    between atoms: C_35  and  C_36
REMARK   11  A    between atoms: C_37  and  C_38
REMARK   12  A    between atoms: C_40  and  O_41
REMARK   13  A    between atoms: O_41  and  C_42
REMARK   14  A    between atoms: C_42  and  C_44
REMARK                            x       y       z     vdW  Elec       q    Type
REMARK                         _______ _______ _______ _____ _____    ______ ____
ROOT
ATOM      1  C   UNL A   1      44.260 -16.962 -32.327  0.00  0.00    -0.017 C 
ATOM      2  C   UNL A   1      45.811 -16.944 -32.530  0.00  0.00    -0.046 C 
ATOM      3  C   UNL A   1      46.139 -17.919 -33.678  0.00  0.00    -0.043 C 
ATOM      4  C   UNL A   1      44.838 -18.015 -34.489  0.00  0.00    +0.009 C 
ATOM      5  C   UNL A   1      44.746 -16.785 -35.417  0.00  0.00    -0.056 C 
ATOM      6  C   UNL A   1      43.810 -18.047 -33.347  0.00  0.00    -0.022 C 
ATOM      7  C   UNL A   1      42.270 -18.294 -33.839  0.00  0.00    -0.031 C 
ATOM      8  C   UNL A   1      41.692 -19.102 -32.603  0.00  0.00    -0.049 C 
ATOM      9  C   UNL A   1      40.283 -18.679 -32.276  0.00  0.00    -0.049 C 
ATOM     10  C   UNL A   1      39.478 -19.002 -33.503  0.00  0.00    -0.029 C 
ATOM     11  C   UNL A   1      37.932 -18.485 -33.456  0.00  0.00    -0.025 C 
ATOM     12  C   UNL A   1      37.780 -17.232 -32.562  0.00  0.00    -0.059 C 
ATOM     13  C   UNL A   1      37.058 -19.625 -32.885  0.00  0.00    -0.044 C 
ATOM     14  C   UNL A   1      35.567 -19.307 -32.785  0.00  0.00    -0.015 C 
ATOM     15  C   UNL A   1      34.957 -18.411 -33.877  0.00  0.00    +0.109 C 
ATOM     16  C   UNL A   1      35.841 -18.114 -35.132  0.00  0.00    +0.006 C 
ATOM     17  C   UNL A   1      35.470 -19.210 -36.186  0.00  0.00    -0.056 C 
ATOM     18  C   UNL A   1      35.443 -16.775 -35.794  0.00  0.00    -0.056 C 
ATOM     19  C   UNL A   1      37.404 -18.224 -34.895  0.00  0.00    -0.027 C 
ATOM     20  C   UNL A   1      38.267 -17.184 -35.616  0.00  0.00    -0.049 C 
ATOM     21  C   UNL A   1      39.740 -17.231 -35.220  0.00  0.00    -0.047 C 
ATOM     22  C   UNL A   1      40.314 -18.647 -34.833  0.00  0.00    -0.023 C 
ATOM     23  C   UNL A   1      39.912 -19.841 -35.782  0.00  0.00    -0.059 C 
ATOM     24  C   UNL A   1      42.157 -18.369 -34.790  0.00  0.00    -0.020 C 
ATOM     25  C   UNL A   1      41.924 -18.525 -36.746  0.00  0.00    -0.059 C 
ATOM     26  C   UNL A   1      43.125 -19.781 -35.048  0.00  0.00    -0.009 C 
ATOM     27  C   UNL A   1      44.628 -19.366 -35.216  0.00  0.00    +0.110 C 
ENDROOT
BRANCH   1  29
ATOM     28  C   UNL A   1      42.305 -15.358 -32.738  0.00  0.00    -0.099 C 
ATOM     29  C   UNL A   1      43.549 -15.611 -32.295  0.00  0.00    -0.076 C 
ATOM     30  C   UNL A   1      44.374 -14.429 -31.839  0.00  0.00    -0.044 C 
ENDBRANCH   1  29
BRANCH  15  31
ATOM     31  O   UNL A   1      34.547 -17.177 -33.212  0.00  0.00    -0.457 OA
BRANCH  31  32
ATOM     32  C   UNL A   1      33.561 -17.037 -32.291  0.00  0.00    +0.339 C 
ATOM     33  O   UNL A   1      32.558 -17.739 -32.303  0.00  0.00    -0.245 OA
BRANCH  32  34
ATOM     34  C   UNL A   1      33.721 -16.035 -31.220  0.00  0.00    +0.059 A 
ATOM     35  C   UNL A   1      32.612 -15.267 -30.846  0.00  0.00    -0.047 A 
ATOM     36  C   UNL A   1      32.737 -14.308 -29.839  0.00  0.00    -0.047 A 
ATOM     37  C   UNL A   1      33.976 -14.105 -29.232  0.00  0.00    +0.018 A 
ATOM     38 BR   UNL A   1      34.145 -12.813 -27.863  0.00  0.00    -0.050 Br
ATOM     39  C   UNL A   1      35.095 -14.842 -29.630  0.00  0.00    -0.047 A 
ATOM     40  C   UNL A   1      34.972 -15.804 -30.636  0.00  0.00    -0.047 A 
ENDBRANCH  32  34
ENDBRANCH  31  32
ENDBRANCH  15  31
BRANCH  27  41
ATOM     41  O   UNL A   1      45.022 -19.242 -36.591  0.00  0.00    -0.457 OA
BRANCH  41  42
ATOM     42  C   UNL A   1      46.140 -19.898 -36.979  0.00  0.00    +0.339 C 
ATOM     43  O   UNL A   1      47.148 -20.069 -36.314  0.00  0.00    -0.245 OA
BRANCH  42  44
ATOM     44  C   UNL A   1      45.951 -20.430 -38.354  0.00  0.00    +0.059 A 
ATOM     45  C   UNL A   1      47.036 -20.765 -39.177  0.00  0.00    -0.047 A 
ATOM     46  C   UNL A   1      46.817 -21.272 -40.461  0.00  0.00    -0.047 A 
ATOM     47  C   UNL A   1      45.512 -21.443 -40.921  0.00  0.00    +0.018 A 
ATOM     48 BR   UNL A   1      45.216 -22.126 -42.660  0.00  0.00    -0.050 Br
ATOM     49  C   UNL A   1      44.425 -21.118 -40.110  0.00  0.00    -0.047 A 
ATOM     50  C   UNL A   1      44.644 -20.615 -38.825  0.00  0.00    -0.047 A 
ENDBRANCH  42  44
ENDBRANCH  41  42
ENDBRANCH  27  41
TORSDOF 7
ENDMDL
MODEL 16
REMARK VINA RESULT:    -7.814     26.992     30.483
REMARK INTER + INTRA:         -13.418
REMARK INTER:                 -10.742
REMARK INTRA:                  -2.675
REMARK UNBOUND:                -2.406
REMARK  Name = cpd365.pdb
REMARK  14 active torsions:
REMARK  status: ('A' for Active; 'I' for Inactive)
REMARK    1  A    between atoms: C_2  and  C_3
REMARK    2  A    between atoms: C_2  and  C_4
REMARK    3  A    between atoms: C_7  and  C_8
REMARK    4  A    between atoms: C_14  and  C_15
REMARK    5  A    between atoms: C_18  and  O_19
REMARK    6  A    between atoms: O_19  and  C_20
REMARK    7  A    between atoms: C_20  and  C_22
REMARK    8  A    between atoms: C_29  and  C_30
REMARK    9  A    between atoms: C_29  and  C_31
REMARK   10  A    between atoms: C_35  and  C_36
REMARK   11  A    between atoms: C_37  and  C_38
REMARK   12  A    between atoms: C_40  and  O_41
REMARK   13  A    between atoms: O_41  and  C_42
REMARK   14  A    between atoms: C_42  and  C_44
REMARK                            x       y       z     vdW  Elec       q    Type
REMARK                         _______ _______ _______ _____ _____    ______ ____
ROOT
ATOM      1  C   UNL A   1      57.576 -46.479 -47.313  0.00  0.00    -0.017 C 
ATOM      2  C   UNL A   1      59.046 -46.840 -46.916  0.00  0.00    -0.046 C 
ATOM      3  C   UNL A   1      58.980 -48.010 -45.913  0.00  0.00    -0.043 C 
ATOM      4  C   UNL A   1      57.627 -48.682 -46.190  0.00  0.00    +0.009 C 
ATOM      5  C   UNL A   1      57.779 -49.603 -47.419  0.00  0.00    -0.056 C 
ATOM      6  C   UNL A   1      56.749 -47.440 -46.412  0.00  0.00    -0.022 C 
ATOM      7  C   UNL A   1      55.158 -47.770 -46.603  0.00  0.00    -0.031 C 
ATOM      8  C   UNL A   1      54.510 -46.476 -45.954  0.00  0.00    -0.049 C 
ATOM      9  C   UNL A   1      53.309 -46.009 -46.736  0.00  0.00    -0.049 C 
ATOM     10  C   UNL A   1      52.327 -47.144 -46.669  0.00  0.00    -0.029 C 
ATOM     11  C   UNL A   1      50.993 -46.942 -47.584  0.00  0.00    -0.025 C 
ATOM     12  C   UNL A   1      51.278 -46.045 -48.812  0.00  0.00    -0.059 C 
ATOM     13  C   UNL A   1      49.904 -46.278 -46.711  0.00  0.00    -0.044 C 
ATOM     14  C   UNL A   1      48.573 -46.026 -47.418  0.00  0.00    -0.015 C 
ATOM     15  C   UNL A   1      48.122 -47.056 -48.469  0.00  0.00    +0.109 C 
ATOM     16  C   UNL A   1      48.923 -48.397 -48.543  0.00  0.00    +0.006 C 
ATOM     17  C   UNL A   1      48.165 -49.401 -47.611  0.00  0.00    -0.056 C 
ATOM     18  C   UNL A   1      48.840 -49.023 -49.954  0.00  0.00    -0.056 C 
ATOM     19  C   UNL A   1      50.413 -48.321 -48.009  0.00  0.00    -0.027 C 
ATOM     20  C   UNL A   1      51.449 -49.133 -48.792  0.00  0.00    -0.049 C 
ATOM     21  C   UNL A   1      52.886 -48.891 -48.340  0.00  0.00    -0.047 C 
ATOM     22  C   UNL A   1      53.091 -48.555 -46.813  0.00  0.00    -0.023 C 
ATOM     23  C   UNL A   1      52.286 -49.451 -45.794  0.00  0.00    -0.059 C 
ATOM     24  C   UNL A   1      54.934 -48.703 -46.581  0.00  0.00    -0.020 C 
ATOM     25  C   UNL A   1      54.472 -50.624 -46.537  0.00  0.00    -0.059 C 
ATOM     26  C   UNL A   1      55.452 -49.051 -44.966  0.00  0.00    -0.009 C 
ATOM     27  C   UNL A   1      56.986 -49.375 -44.962  0.00  0.00    +0.110 C 
ENDROOT
BRANCH   1  29
ATOM     28  C   UNL A   1      56.093 -46.014 -49.350  0.00  0.00    -0.099 C 
ATOM     29  C   UNL A   1      57.266 -46.383 -48.806  0.00  0.00    -0.076 C 
ATOM     30  C   UNL A   1      58.342 -46.873 -49.747  0.00  0.00    -0.044 C 
ENDBRANCH   1  29
BRANCH  15  31
ATOM     31  O   UNL A   1      48.132 -46.361 -49.754  0.00  0.00    -0.457 OA
BRANCH  31  32
ATOM     32  C   UNL A   1      47.671 -45.110 -50.005  0.00  0.00    +0.339 C 
ATOM     33  O   UNL A   1      46.477 -44.840 -49.976  0.00  0.00    -0.245 OA
BRANCH  32  34
ATOM     34  C   UNL A   1      48.642 -44.034 -50.284  0.00  0.00    +0.059 A 
ATOM     35  C   UNL A   1      49.295 -44.020 -51.521  0.00  0.00    -0.047 A 
ATOM     36  C   UNL A   1      50.221 -43.016 -51.809  0.00  0.00    -0.047 A 
ATOM     37  C   UNL A   1      50.508 -42.049 -50.846  0.00  0.00    +0.018 A 
ATOM     38 BR   UNL A   1      51.757 -40.685 -51.238  0.00  0.00    -0.050 Br
ATOM     39  C   UNL A   1      49.888 -42.082 -49.595  0.00  0.00    -0.047 A 
ATOM     40  C   UNL A   1      48.958 -43.084 -49.306  0.00  0.00    -0.047 A 
ENDBRANCH  32  34
ENDBRANCH  31  32
ENDBRANCH  15  31
BRANCH  27  41
ATOM     41  O   UNL A   1      57.259 -50.784 -45.006  0.00  0.00    -0.457 OA
BRANCH  41  42
ATOM     42  C   UNL A   1      58.116 -51.279 -44.083  0.00  0.00    +0.339 C 
ATOM     43  O   UNL A   1      59.270 -50.927 -43.902  0.00  0.00    -0.245 OA
BRANCH  42  44
ATOM     44  C   UNL A   1      57.425 -52.316 -43.271  0.00  0.00    +0.059 A 
ATOM     45  C   UNL A   1      56.027 -52.424 -43.238  0.00  0.00    -0.047 A 
ATOM     46  C   UNL A   1      55.415 -53.419 -42.470  0.00  0.00    -0.047 A 
ATOM     47  C   UNL A   1      56.202 -54.304 -41.735  0.00  0.00    +0.018 A 
ATOM     48 BR   UNL A   1      55.373 -55.648 -40.694  0.00  0.00    -0.050 Br
ATOM     49  C   UNL A   1      57.593 -54.209 -41.764  0.00  0.00    -0.047 A 
ATOM     50  C   UNL A   1      58.205 -53.217 -42.535  0.00  0.00    -0.047 A 
ENDBRANCH  42  44
ENDBRANCH  41  42
ENDBRANCH  27  41
TORSDOF 7
ENDMDL
MODEL 17
REMARK VINA RESULT:    -7.587     21.734     24.516
REMARK INTER + INTRA:         -13.097
REMARK INTER:                 -10.945
REMARK INTRA:                  -2.152
REMARK UNBOUND:                -2.406
REMARK  Name = cpd365.pdb
REMARK  14 active torsions:
REMARK  status: ('A' for Active; 'I' for Inactive)
REMARK    1  A    between atoms: C_2  and  C_3
REMARK    2  A    between atoms: C_2  and  C_4
REMARK    3  A    between atoms: C_7  and  C_8
REMARK    4  A    between atoms: C_14  and  C_15
REMARK    5  A    between atoms: C_18  and  O_19
REMARK    6  A    between atoms: O_19  and  C_20
REMARK    7  A    between atoms: C_20  and  C_22
REMARK    8  A    between atoms: C_29  and  C_30
REMARK    9  A    between atoms: C_29  and  C_31
REMARK   10  A    between atoms: C_35  and  C_36
REMARK   11  A    between atoms: C_37  and  C_38
REMARK   12  A    between atoms: C_40  and  O_41
REMARK   13  A    between atoms: O_41  and  C_42
REMARK   14  A    between atoms: C_42  and  C_44
REMARK                            x       y       z     vdW  Elec       q    Type
REMARK                         _______ _______ _______ _____ _____    ______ ____
ROOT
ATOM      1  C   UNL A   1      44.730 -12.038 -38.990  0.00  0.00    -0.017 C 
ATOM      2  C   UNL A   1      45.417 -10.665 -39.289  0.00  0.00    -0.046 C 
ATOM      3  C   UNL A   1      46.868 -10.957 -39.721  0.00  0.00    -0.043 C 
ATOM      4  C   UNL A   1      46.836 -12.405 -40.235  0.00  0.00    +0.009 C 
ATOM      5  C   UNL A   1      46.293 -12.400 -41.680  0.00  0.00    -0.056 C 
ATOM      6  C   UNL A   1      45.902 -13.041 -39.193  0.00  0.00    -0.022 C 
ATOM      7  C   UNL A   1      45.738 -14.661 -39.341  0.00  0.00    -0.031 C 
ATOM      8  C   UNL A   1      45.540 -15.077 -37.824  0.00  0.00    -0.049 C 
ATOM      9  C   UNL A   1      44.502 -16.160 -37.679  0.00  0.00    -0.049 C 
ATOM     10  C   UNL A   1      45.043 -17.332 -38.450  0.00  0.00    -0.029 C 
ATOM     11  C   UNL A   1      44.016 -18.592 -38.578  0.00  0.00    -0.025 C 
ATOM     12  C   UNL A   1      42.541 -18.129 -38.526  0.00  0.00    -0.059 C 
ATOM     13  C   UNL A   1      44.287 -19.559 -37.402  0.00  0.00    -0.044 C 
ATOM     14  C   UNL A   1      43.412 -20.810 -37.379  0.00  0.00    -0.015 C 
ATOM     15  C   UNL A   1      43.010 -21.421 -38.734  0.00  0.00    +0.109 C 
ATOM     16  C   UNL A   1      43.736 -20.873 -40.006  0.00  0.00    +0.006 C 
ATOM     17  C   UNL A   1      44.964 -21.815 -40.237  0.00  0.00    -0.056 C 
ATOM     18  C   UNL A   1      42.860 -21.043 -41.268  0.00  0.00    -0.056 C 
ATOM     19  C   UNL A   1      44.312 -19.403 -39.871  0.00  0.00    -0.027 C 
ATOM     20  C   UNL A   1      44.188 -18.516 -41.114  0.00  0.00    -0.049 C 
ATOM     21  C   UNL A   1      44.603 -17.068 -40.877  0.00  0.00    -0.047 C 
ATOM     22  C   UNL A   1      45.742 -16.832 -39.812  0.00  0.00    -0.023 C 
ATOM     23  C   UNL A   1      46.983 -17.802 -39.900  0.00  0.00    -0.059 C 
ATOM     24  C   UNL A   1      46.218 -15.050 -40.076  0.00  0.00    -0.020 C 
ATOM     25  C   UNL A   1      47.207 -15.851 -41.588  0.00  0.00    -0.059 C 
ATOM     26  C   UNL A   1      47.823 -14.631 -39.579  0.00  0.00    -0.009 C 
ATOM     27  C   UNL A   1      48.165 -13.181 -40.066  0.00  0.00    +0.110 C 
ENDROOT
BRANCH   1  29
ATOM     28  C   UNL A   1      42.732 -13.476 -39.701  0.00  0.00    -0.099 C 
ATOM     29  C   UNL A   1      43.383 -12.301 -39.661  0.00  0.00    -0.076 C 
ATOM     30  C   UNL A   1      42.799 -11.159 -40.461  0.00  0.00    -0.044 C 
ENDBRANCH   1  29
BRANCH  15  31
ATOM     31  O   UNL A   1      41.562 -21.264 -38.840  0.00  0.00    -0.457 OA
BRANCH  31  32
ATOM     32  C   UNL A   1      40.615 -22.129 -38.400  0.00  0.00    +0.339 C 
ATOM     33  O   UNL A   1      40.406 -23.200 -38.955  0.00  0.00    -0.245 OA
BRANCH  32  34
ATOM     34  C   UNL A   1      39.841 -21.786 -37.191  0.00  0.00    +0.059 A 
ATOM     35  C   UNL A   1      39.454 -20.456 -36.995  0.00  0.00    -0.047 A 
ATOM     36  C   UNL A   1      38.725 -20.103 -35.858  0.00  0.00    -0.047 A 
ATOM     37  C   UNL A   1      38.412 -21.078 -34.911  0.00  0.00    +0.018 A 
ATOM     38 BR   UNL A   1      37.418 -20.603 -33.375  0.00  0.00    -0.050 Br
ATOM     39  C   UNL A   1      38.830 -22.400 -35.084  0.00  0.00    -0.047 A 
ATOM     40  C   UNL A   1      39.558 -22.756 -36.223  0.00  0.00    -0.047 A 
ENDBRANCH  32  34
ENDBRANCH  31  32
ENDBRANCH  15  31
BRANCH  27  41
ATOM     41  O   UNL A   1      48.894 -13.165 -41.303  0.00  0.00    -0.457 OA
BRANCH  41  42
ATOM     42  C   UNL A   1      50.181 -13.580 -41.271  0.00  0.00    +0.339 C 
ATOM     43  O   UNL A   1      50.871 -13.729 -40.275  0.00  0.00    -0.245 OA
BRANCH  42  44
ATOM     44  C   UNL A   1      50.642 -13.876 -42.653  0.00  0.00    +0.059 A 
ATOM     45  C   UNL A   1      51.528 -14.927 -42.933  0.00  0.00    -0.047 A 
ATOM     46  C   UNL A   1      51.929 -15.180 -44.247  0.00  0.00    -0.047 A 
ATOM     47  C   UNL A   1      51.447 -14.380 -45.282  0.00  0.00    +0.018 A 
ATOM     48 BR   UNL A   1      51.994 -14.719 -47.059  0.00  0.00    -0.050 Br
ATOM     49  C   UNL A   1      50.563 -13.334 -45.016  0.00  0.00    -0.047 A 
ATOM     50  C   UNL A   1      50.157 -13.085 -43.702  0.00  0.00    -0.047 A 
ENDBRANCH  42  44
ENDBRANCH  41  42
ENDBRANCH  27  41
TORSDOF 7
ENDMDL
MODEL 18
REMARK VINA RESULT:    -7.523     15.626     18.035
REMARK INTER + INTRA:         -13.007
REMARK INTER:                 -10.536
REMARK INTRA:                  -2.471
REMARK UNBOUND:                -2.406
REMARK  Name = cpd365.pdb
REMARK  14 active torsions:
REMARK  status: ('A' for Active; 'I' for Inactive)
REMARK    1  A    between atoms: C_2  and  C_3
REMARK    2  A    between atoms: C_2  and  C_4
REMARK    3  A    between atoms: C_7  and  C_8
REMARK    4  A    between atoms: C_14  and  C_15
REMARK    5  A    between atoms: C_18  and  O_19
REMARK    6  A    between atoms: O_19  and  C_20
REMARK    7  A    between atoms: C_20  and  C_22
REMARK    8  A    between atoms: C_29  and  C_30
REMARK    9  A    between atoms: C_29  and  C_31
REMARK   10  A    between atoms: C_35  and  C_36
REMARK   11  A    between atoms: C_37  and  C_38
REMARK   12  A    between atoms: C_40  and  O_41
REMARK   13  A    between atoms: O_41  and  C_42
REMARK   14  A    between atoms: C_42  and  C_44
REMARK                            x       y       z     vdW  Elec       q    Type
REMARK                         _______ _______ _______ _____ _____    ______ ____
ROOT
ATOM      1  C   UNL A   1      39.381 -22.161 -36.001  0.00  0.00    -0.017 C 
ATOM      2  C   UNL A   1      40.442 -22.976 -36.812  0.00  0.00    -0.046 C 
ATOM      3  C   UNL A   1      41.241 -21.971 -37.668  0.00  0.00    -0.043 C 
ATOM      4  C   UNL A   1      41.078 -20.627 -36.942  0.00  0.00    +0.009 C 
ATOM      5  C   UNL A   1      42.076 -20.582 -35.765  0.00  0.00    -0.056 C 
ATOM      6  C   UNL A   1      39.598 -20.717 -36.536  0.00  0.00    -0.022 C 
ATOM      7  C   UNL A   1      39.012 -19.359 -35.839  0.00  0.00    -0.031 C 
ATOM      8  C   UNL A   1      37.506 -19.401 -36.335  0.00  0.00    -0.049 C 
ATOM      9  C   UNL A   1      36.555 -18.966 -35.249  0.00  0.00    -0.049 C 
ATOM     10  C   UNL A   1      36.936 -17.547 -34.934  0.00  0.00    -0.029 C 
ATOM     11  C   UNL A   1      36.146 -16.898 -33.664  0.00  0.00    -0.025 C 
ATOM     12  C   UNL A   1      35.722 -17.983 -32.645  0.00  0.00    -0.059 C 
ATOM     13  C   UNL A   1      34.885 -16.179 -34.195  0.00  0.00    -0.044 C 
ATOM     14  C   UNL A   1      34.030 -15.500 -33.126  0.00  0.00    -0.015 C 
ATOM     15  C   UNL A   1      34.760 -14.876 -31.924  0.00  0.00    +0.109 C 
ATOM     16  C   UNL A   1      36.317 -14.757 -32.018  0.00  0.00    +0.006 C 
ATOM     17  C   UNL A   1      36.603 -13.334 -32.602  0.00  0.00    -0.056 C 
ATOM     18  C   UNL A   1      36.964 -14.750 -30.614  0.00  0.00    -0.056 C 
ATOM     19  C   UNL A   1      37.012 -15.795 -32.993  0.00  0.00    -0.027 C 
ATOM     20  C   UNL A   1      38.355 -16.364 -32.522  0.00  0.00    -0.049 C 
ATOM     21  C   UNL A   1      38.894 -17.477 -33.414  0.00  0.00    -0.047 C 
ATOM     22  C   UNL A   1      38.538 -17.380 -34.946  0.00  0.00    -0.023 C 
ATOM     23  C   UNL A   1      38.698 -15.956 -35.605  0.00  0.00    -0.059 C 
ATOM     24  C   UNL A   1      39.652 -18.652 -35.731  0.00  0.00    -0.020 C 
ATOM     25  C   UNL A   1      40.970 -17.196 -35.507  0.00  0.00    -0.059 C 
ATOM     26  C   UNL A   1      40.020 -18.384 -37.401  0.00  0.00    -0.009 C 
ATOM     27  C   UNL A   1      41.136 -19.384 -37.862  0.00  0.00    +0.110 C 
ENDROOT
BRANCH   1  29
ATOM     28  C   UNL A   1      40.291 -22.954 -33.740  0.00  0.00    -0.099 C 
ATOM     29  C   UNL A   1      39.320 -22.411 -34.495  0.00  0.00    -0.076 C 
ATOM     30  C   UNL A   1      37.994 -22.135 -33.823  0.00  0.00    -0.044 C 
ENDBRANCH   1  29
BRANCH  15  31
ATOM     31  O   UNL A   1      34.357 -15.651 -30.753  0.00  0.00    -0.457 OA
BRANCH  31  32
ATOM     32  C   UNL A   1      33.248 -15.463 -29.995  0.00  0.00    +0.339 C 
ATOM     33  O   UNL A   1      32.153 -15.897 -30.329  0.00  0.00    -0.245 OA
BRANCH  32  34
ATOM     34  C   UNL A   1      33.373 -14.747 -28.711  0.00  0.00    +0.059 A 
ATOM     35  C   UNL A   1      34.035 -13.514 -28.689  0.00  0.00    -0.047 A 
ATOM     36  C   UNL A   1      34.171 -12.818 -27.487  0.00  0.00    -0.047 A 
ATOM     37  C   UNL A   1      33.670 -13.373 -26.310  0.00  0.00    +0.018 A 
ATOM     38 BR   UNL A   1      33.848 -12.428 -24.682  0.00  0.00    -0.050 Br
ATOM     39  C   UNL A   1      33.044 -14.623 -26.320  0.00  0.00    -0.047 A 
ATOM     40  C   UNL A   1      32.904 -15.320 -27.523  0.00  0.00    -0.047 A 
ENDBRANCH  32  34
ENDBRANCH  31  32
ENDBRANCH  15  31
BRANCH  27  41
ATOM     41  O   UNL A   1      42.452 -18.810 -37.817  0.00  0.00    -0.457 OA
BRANCH  41  42
ATOM     42  C   UNL A   1      43.027 -18.481 -38.996  0.00  0.00    +0.339 C 
ATOM     43  O   UNL A   1      42.854 -17.449 -39.624  0.00  0.00    -0.245 OA
BRANCH  42  44
ATOM     44  C   UNL A   1      43.954 -19.564 -39.416  0.00  0.00    +0.059 A 
ATOM     45  C   UNL A   1      44.915 -20.099 -38.545  0.00  0.00    -0.047 A 
ATOM     46  C   UNL A   1      45.762 -21.124 -38.974  0.00  0.00    -0.047 A 
ATOM     47  C   UNL A   1      45.649 -21.615 -40.274  0.00  0.00    +0.018 A 
ATOM     48 BR   UNL A   1      46.798 -23.000 -40.855  0.00  0.00    -0.050 Br
ATOM     49  C   UNL A   1      44.695 -21.094 -41.148  0.00  0.00    -0.047 A 
ATOM     50  C   UNL A   1      43.844 -20.071 -40.717  0.00  0.00    -0.047 A 
ENDBRANCH  42  44
ENDBRANCH  41  42
ENDBRANCH  27  41
TORSDOF 7
ENDMDL
MODEL 19
REMARK VINA RESULT:    -7.428     22.070     25.216
REMARK INTER + INTRA:         -12.874
REMARK INTER:                 -10.691
REMARK INTRA:                  -2.182
REMARK UNBOUND:                -2.406
REMARK  Name = cpd365.pdb
REMARK  14 active torsions:
REMARK  status: ('A' for Active; 'I' for Inactive)
REMARK    1  A    between atoms: C_2  and  C_3
REMARK    2  A    between atoms: C_2  and  C_4
REMARK    3  A    between atoms: C_7  and  C_8
REMARK    4  A    between atoms: C_14  and  C_15
REMARK    5  A    between atoms: C_18  and  O_19
REMARK    6  A    between atoms: O_19  and  C_20
REMARK    7  A    between atoms: C_20  and  C_22
REMARK    8  A    between atoms: C_29  and  C_30
REMARK    9  A    between atoms: C_29  and  C_31
REMARK   10  A    between atoms: C_35  and  C_36
REMARK   11  A    between atoms: C_37  and  C_38
REMARK   12  A    between atoms: C_40  and  O_41
REMARK   13  A    between atoms: O_41  and  C_42
REMARK   14  A    between atoms: C_42  and  C_44
REMARK                            x       y       z     vdW  Elec       q    Type
REMARK                         _______ _______ _______ _____ _____    ______ ____
ROOT
ATOM      1  C   UNL A   1      44.689 -19.936 -40.300  0.00  0.00    -0.017 C 
ATOM      2  C   UNL A   1      43.826 -21.225 -40.094  0.00  0.00    -0.046 C 
ATOM      3  C   UNL A   1      43.250 -21.172 -38.665  0.00  0.00    -0.043 C 
ATOM      4  C   UNL A   1      43.261 -19.680 -38.297  0.00  0.00    +0.009 C 
ATOM      5  C   UNL A   1      42.027 -19.008 -38.935  0.00  0.00    -0.056 C 
ATOM      6  C   UNL A   1      44.613 -19.264 -38.900  0.00  0.00    -0.022 C 
ATOM      7  C   UNL A   1      45.044 -17.721 -38.574  0.00  0.00    -0.031 C 
ATOM      8  C   UNL A   1      46.623 -17.865 -38.506  0.00  0.00    -0.049 C 
ATOM      9  C   UNL A   1      47.312 -16.689 -39.148  0.00  0.00    -0.049 C 
ATOM     10  C   UNL A   1      46.887 -15.493 -38.342  0.00  0.00    -0.029 C 
ATOM     11  C   UNL A   1      47.382 -14.060 -38.942  0.00  0.00    -0.025 C 
ATOM     12  C   UNL A   1      47.555 -14.118 -40.478  0.00  0.00    -0.059 C 
ATOM     13  C   UNL A   1      48.737 -13.704 -38.290  0.00  0.00    -0.044 C 
ATOM     14  C   UNL A   1      49.340 -12.374 -38.737  0.00  0.00    -0.015 C 
ATOM     15  C   UNL A   1      48.367 -11.222 -39.046  0.00  0.00    +0.109 C 
ATOM     16  C   UNL A   1      46.872 -11.420 -38.632  0.00  0.00    +0.006 C 
ATOM     17  C   UNL A   1      46.739 -10.806 -37.199  0.00  0.00    -0.056 C 
ATOM     18  C   UNL A   1      45.928 -10.575 -39.518  0.00  0.00    -0.056 C 
ATOM     19  C   UNL A   1      46.400 -12.929 -38.523  0.00  0.00    -0.027 C 
ATOM     20  C   UNL A   1      44.980 -13.226 -39.016  0.00  0.00    -0.049 C 
ATOM     21  C   UNL A   1      44.640 -14.712 -39.045  0.00  0.00    -0.047 C 
ATOM     22  C   UNL A   1      45.330 -15.608 -37.947  0.00  0.00    -0.023 C 
ATOM     23  C   UNL A   1      45.336 -15.025 -36.481  0.00  0.00    -0.059 C 
ATOM     24  C   UNL A   1      44.404 -17.222 -38.061  0.00  0.00    -0.020 C 
ATOM     25  C   UNL A   1      43.086 -16.195 -37.007  0.00  0.00    -0.059 C 
ATOM     26  C   UNL A   1      44.420 -18.189 -36.625  0.00  0.00    -0.009 C 
ATOM     27  C   UNL A   1      43.424 -19.388 -36.785  0.00  0.00    +0.110 C 
ENDROOT
BRANCH   1  29
ATOM     28  C   UNL A   1      44.119 -17.798 -41.592  0.00  0.00    -0.099 C 
ATOM     29  C   UNL A   1      44.411 -19.110 -41.554  0.00  0.00    -0.076 C 
ATOM     30  C   UNL A   1      44.333 -19.873 -42.857  0.00  0.00    -0.044 C 
ENDBRANCH   1  29
BRANCH  15  31
ATOM     31  O   UNL A   1      48.491 -10.954 -40.477  0.00  0.00    -0.457 OA
BRANCH  31  32
ATOM     32  C   UNL A   1      49.640 -10.773 -41.174  0.00  0.00    +0.339 C 
ATOM     33  O   UNL A   1      50.425  -9.873 -40.907  0.00  0.00    -0.245 OA
BRANCH  32  34
ATOM     34  C   UNL A   1      49.971 -11.713 -42.262  0.00  0.00    +0.059 A 
ATOM     35  C   UNL A   1      51.309 -12.074 -42.456  0.00  0.00    -0.047 A 
ATOM     36  C   UNL A   1      51.650 -12.958 -43.480  0.00  0.00    -0.047 A 
ATOM     37  C   UNL A   1      50.655 -13.454 -44.322  0.00  0.00    +0.018 A 
ATOM     38 BR   UNL A   1      51.115 -14.658 -45.705  0.00  0.00    -0.050 Br
ATOM     39  C   UNL A   1      49.323 -13.065 -44.157  0.00  0.00    -0.047 A 
ATOM     40  C   UNL A   1      48.978 -12.183 -43.130  0.00  0.00    -0.047 A 
ENDBRANCH  32  34
ENDBRANCH  31  32
ENDBRANCH  15  31
BRANCH  27  41
ATOM     41  O   UNL A   1      42.138 -19.126 -36.203  0.00  0.00    -0.457 OA
BRANCH  41  42
ATOM     42  C   UNL A   1      41.997 -19.357 -34.877  0.00  0.00    +0.339 C 
ATOM     43  O   UNL A   1      42.496 -18.710 -33.971  0.00  0.00    -0.245 OA
BRANCH  42  44
ATOM     44  C   UNL A   1      41.096 -20.521 -34.669  0.00  0.00    +0.059 A 
ATOM     45  C   UNL A   1      40.966 -21.147 -33.420  0.00  0.00    -0.047 A 
ATOM     46  C   UNL A   1      40.100 -22.232 -33.263  0.00  0.00    -0.047 A 
ATOM     47  C   UNL A   1      39.365 -22.692 -34.354  0.00  0.00    +0.018 A 
ATOM     48 BR   UNL A   1      38.196 -24.163 -34.141  0.00  0.00    -0.050 Br
ATOM     49  C   UNL A   1      39.482 -22.076 -35.599  0.00  0.00    -0.047 A 
ATOM     50  C   UNL A   1      40.345 -20.987 -35.756  0.00  0.00    -0.047 A 
ENDBRANCH  42  44
ENDBRANCH  41  42
ENDBRANCH  27  41
TORSDOF 7
ENDMDL
MODEL 20
REMARK VINA RESULT:    -7.341     22.429     25.538
REMARK INTER + INTRA:         -12.751
REMARK INTER:                  -9.988
REMARK INTRA:                  -2.764
REMARK UNBOUND:                -2.406
REMARK  Name = cpd365.pdb
REMARK  14 active torsions:
REMARK  status: ('A' for Active; 'I' for Inactive)
REMARK    1  A    between atoms: C_2  and  C_3
REMARK    2  A    between atoms: C_2  and  C_4
REMARK    3  A    between atoms: C_7  and  C_8
REMARK    4  A    between atoms: C_14  and  C_15
REMARK    5  A    between atoms: C_18  and  O_19
REMARK    6  A    between atoms: O_19  and  C_20
REMARK    7  A    between atoms: C_20  and  C_22
REMARK    8  A    between atoms: C_29  and  C_30
REMARK    9  A    between atoms: C_29  and  C_31
REMARK   10  A    between atoms: C_35  and  C_36
REMARK   11  A    between atoms: C_37  and  C_38
REMARK   12  A    between atoms: C_40  and  O_41
REMARK   13  A    between atoms: O_41  and  C_42
REMARK   14  A    between atoms: C_42  and  C_44
REMARK                            x       y       z     vdW  Elec       q    Type
REMARK                         _______ _______ _______ _____ _____    ______ ____
ROOT
ATOM      1  C   UNL A   1      41.356 -17.138 -39.289  0.00  0.00    -0.017 C 
ATOM      2  C   UNL A   1      40.288 -17.948 -38.483  0.00  0.00    -0.046 C 
ATOM      3  C   UNL A   1      41.028 -18.701 -37.360  0.00  0.00    -0.043 C 
ATOM      4  C   UNL A   1      42.322 -17.901 -37.143  0.00  0.00    +0.009 C 
ATOM      5  C   UNL A   1      42.000 -16.678 -36.258  0.00  0.00    -0.056 C 
ATOM      6  C   UNL A   1      42.682 -17.571 -38.601  0.00  0.00    -0.022 C 
ATOM      7  C   UNL A   1      44.123 -16.820 -38.781  0.00  0.00    -0.031 C 
ATOM      8  C   UNL A   1      44.577 -17.387 -40.191  0.00  0.00    -0.049 C 
ATOM      9  C   UNL A   1      45.239 -16.322 -41.027  0.00  0.00    -0.049 C 
ATOM     10  C   UNL A   1      46.452 -15.902 -40.246  0.00  0.00    -0.029 C 
ATOM     11  C   UNL A   1      47.259 -14.633 -40.876  0.00  0.00    -0.025 C 
ATOM     12  C   UNL A   1      46.317 -13.704 -41.679  0.00  0.00    -0.059 C 
ATOM     13  C   UNL A   1      48.359 -15.176 -41.815  0.00  0.00    -0.044 C 
ATOM     14  C   UNL A   1      49.223 -14.109 -42.484  0.00  0.00    -0.015 C 
ATOM     15  C   UNL A   1      49.533 -12.837 -41.674  0.00  0.00    +0.109 C 
ATOM     16  C   UNL A   1      49.163 -12.850 -40.155  0.00  0.00    +0.006 C 
ATOM     17  C   UNL A   1      50.449 -13.330 -39.405  0.00  0.00    -0.056 C 
ATOM     18  C   UNL A   1      48.904 -11.420 -39.628  0.00  0.00    -0.056 C 
ATOM     19  C   UNL A   1      48.004 -13.854 -39.755  0.00  0.00    -0.027 C 
ATOM     20  C   UNL A   1      47.023 -13.357 -38.688  0.00  0.00    -0.049 C 
ATOM     21  C   UNL A   1      45.837 -14.290 -38.464  0.00  0.00    -0.047 C 
ATOM     22  C   UNL A   1      46.109 -15.828 -38.674  0.00  0.00    -0.023 C 
ATOM     23  C   UNL A   1      47.439 -16.390 -38.038  0.00  0.00    -0.059 C 
ATOM     24  C   UNL A   1      44.589 -16.637 -37.961  0.00  0.00    -0.020 C 
ATOM     25  C   UNL A   1      45.547 -16.262 -36.274  0.00  0.00    -0.059 C 
ATOM     26  C   UNL A   1      44.801 -18.269 -37.422  0.00  0.00    -0.009 C 
ATOM     27  C   UNL A   1      43.524 -18.738 -36.644  0.00  0.00    +0.110 C 
ENDROOT
BRANCH   1  29
ATOM     28  C   UNL A   1      40.179 -14.904 -38.853  0.00  0.00    -0.099 C 
ATOM     29  C   UNL A   1      41.072 -15.655 -39.521  0.00  0.00    -0.076 C 
ATOM     30  C   UNL A   1      41.773 -15.014 -40.697  0.00  0.00    -0.044 C 
ENDBRANCH   1  29
BRANCH  15  31
ATOM     31  O   UNL A   1      48.872 -11.737 -42.372  0.00  0.00    -0.457 OA
BRANCH  31  32
ATOM     32  C   UNL A   1      48.994 -11.415 -43.684  0.00  0.00    +0.339 C 
ATOM     33  O   UNL A   1      50.073 -11.441 -44.261  0.00  0.00    -0.245 OA
BRANCH  32  34
ATOM     34  C   UNL A   1      47.782 -11.063 -44.449  0.00  0.00    +0.059 A 
ATOM     35  C   UNL A   1      46.948 -12.092 -44.900  0.00  0.00    -0.047 A 
ATOM     36  C   UNL A   1      45.798 -11.787 -45.629  0.00  0.00    -0.047 A 
ATOM     37  C   UNL A   1      45.503 -10.456 -45.926  0.00  0.00    +0.018 A 
ATOM     38 BR   UNL A   1      43.942 -10.041 -46.906  0.00  0.00    -0.050 Br
ATOM     39  C   UNL A   1      46.354  -9.428 -45.511  0.00  0.00    -0.047 A 
ATOM     40  C   UNL A   1      47.505  -9.731 -44.778  0.00  0.00    -0.047 A 
ENDBRANCH  32  34
ENDBRANCH  31  32
ENDBRANCH  15  31
BRANCH  27  41
ATOM     41  O   UNL A   1      43.654 -18.596 -35.221  0.00  0.00    -0.457 OA
BRANCH  41  42
ATOM     42  C   UNL A   1      43.675 -19.729 -34.482  0.00  0.00    +0.339 C 
ATOM     43  O   UNL A   1      44.664 -20.365 -34.158  0.00  0.00    -0.245 OA
BRANCH  42  44
ATOM     44  C   UNL A   1      42.289 -20.082 -34.077  0.00  0.00    +0.059 A 
ATOM     45  C   UNL A   1      41.605 -21.170 -34.639  0.00  0.00    -0.047 A 
ATOM     46  C   UNL A   1      40.306 -21.476 -34.224  0.00  0.00    -0.047 A 
ATOM     47  C   UNL A   1      39.691 -20.694 -33.248  0.00  0.00    +0.018 A 
ATOM     48 BR   UNL A   1      37.932 -21.106 -32.689  0.00  0.00    -0.050 Br
ATOM     49  C   UNL A   1      40.363 -19.612 -32.678  0.00  0.00    -0.047 A 
ATOM     50  C   UNL A   1      41.664 -19.309 -33.090  0.00  0.00    -0.047 A 
ENDBRANCH  42  44
ENDBRANCH  41  42
ENDBRANCH  27  41
TORSDOF 7
ENDMDL
