@<TRIPOS>MOLECULE
*****
 50 56 0 0 0
SMALL
GASTEIGER

@<TRIPOS>ATOM
      1 C           0.4300    4.4834    0.0000 C.2     1  UNL1       -0.0091
      2 C          -0.2483    3.8051    0.0000 C.2     1  UNL1       -0.0442
      3 C          -1.1749    4.0534    0.0000 C.3     1  UNL1        0.0263
      4 C          -0.0000    2.8785    0.0000 C.3     1  UNL1        0.0184
      5 C           0.8308    2.3988    0.0000 C.3     1  UNL1        0.0041
      6 C           0.8313    1.4399    0.0000 C.3     1  UNL1        0.0038
      7 C           0.0000    0.9599    0.0000 C.3     1  UNL1        0.0372
      8 C           0.8555    0.4660    0.0000 C.3     1  UNL1        0.0036
      9 C          -0.8308    1.4396    0.0000 C.3     1  UNL1        0.0071
     10 C          -1.6621    0.9596    0.0000 C.3     1  UNL1        0.0005
     11 C          -2.4934    1.4395    0.0000 C.3     1  UNL1        0.0000
     12 C          -3.3247    0.9596    0.0000 C.3     1  UNL1        0.0000
     13 C          -3.3247   -0.0003    0.0000 C.3     1  UNL1        0.0000
     14 C          -4.1557   -0.4798    0.0000 C.3     1  UNL1        0.0002
     15 C          -4.1560    0.5080    0.0000 C.3     1  UNL1        0.0000
     16 C          -4.9867   -0.0003    0.0000 C.3     1  UNL1        0.0037
     17 C          -5.8174   -0.4803    0.0000 C.3     1  UNL1        0.0436
     18 C          -5.8172   -1.4397    0.0000 C.3     1  UNL1        0.1689
     19 O          -6.6785   -1.9373    0.0000 O.3     1  UNL1       -0.4492
     20 C          -7.5401   -1.4402    0.0000 C.2     1  UNL1        0.3411
     21 O          -7.5404   -0.4455    0.0000 O.2     1  UNL1       -0.2449
     22 C          -8.4015   -1.9378    0.0000 C.ar    1  UNL1        0.0757
     23 C          -8.4012   -2.9326    0.0000 C.ar    1  UNL1        0.0069
     24 C          -9.2625   -3.4302    0.0000 C.ar    1  UNL1        0.0069
     25 C         -10.1241   -2.9331    0.0000 C.ar    1  UNL1        0.0346
     26 BR        -10.9855   -3.4307    0.0000 Br      1  UNL1       -0.0490
     27 C         -10.1244   -1.9383    0.0000 C.ar    1  UNL1        0.0069
     28 C          -9.2631   -1.4407    0.0000 C.ar    1  UNL1        0.0069
     29 C          -4.9862   -1.9192    0.0000 C.3     1  UNL1        0.0369
     30 C          -5.4833   -2.7808    0.0000 C.3     1  UNL1        0.0036
     31 C          -4.4885   -2.7805    0.0000 C.3     1  UNL1        0.0036
     32 C          -4.1554   -1.4392    0.0000 C.3     1  UNL1        0.0034
     33 C          -3.3241   -1.9192    0.0000 C.3     1  UNL1        0.0001
     34 C          -2.4931   -1.4397    0.0000 C.3     1  UNL1        0.0000
     35 C          -2.4934   -0.4803    0.0000 C.3     1  UNL1        0.0001
     36 C          -1.6379   -0.9742    0.0000 C.3     1  UNL1        0.0000
     37 C          -1.6621   -0.0003    0.0000 C.3     1  UNL1        0.0035
     38 C          -1.6621   -1.9760    0.0000 C.3     1  UNL1        0.0001
     39 C          -0.8313   -0.4800    0.0000 C.3     1  UNL1        0.0436
     40 C           0.0000    0.0000    0.0000 C.3     1  UNL1        0.1689
     41 O           0.8313   -0.4800    0.0000 O.3     1  UNL1       -0.4492
     42 C           0.5347   -1.3929    0.0000 C.2     1  UNL1        0.3411
     43 O          -0.4043   -1.5925    0.0000 O.2     1  UNL1       -0.2449
     44 C           1.1770   -2.1063    0.0000 C.ar    1  UNL1        0.0757
     45 C           2.1159   -1.9067    0.0000 C.ar    1  UNL1        0.0069
     46 C           2.7582   -2.6200    0.0000 C.ar    1  UNL1        0.0069
     47 C           2.4616   -3.5330    0.0000 C.ar    1  UNL1        0.0346
     48 BR          3.1039   -4.2463    0.0000 Br      1  UNL1       -0.0490
     49 C           1.5227   -3.7325    0.0000 C.ar    1  UNL1        0.0069
     50 C           0.8804   -3.0192    0.0000 C.ar    1  UNL1        0.0069
@<TRIPOS>BOND
     1     1     2    2
     2     2     3    1
     3     2     4    1
     4     4     5    1
     5     5     6    1
     6     6     7    1
     7     7     8    1
     8     7     9    1
     9     4     9    1
    10     9    10    1
    11    10    11    1
    12    11    12    1
    13    12    13    1
    14    13    14    1
    15    14    15    1
    16    14    16    1
    17    16    17    1
    18    17    18    1
    19    18    19    1
    20    19    20    1
    21    20    21    2
    22    20    22    1
    23    22    23   ar
    24    23    24   ar
    25    24    25   ar
    26    25    26    1
    27    25    27   ar
    28    27    28   ar
    29    22    28   ar
    30    18    29    1
    31    29    30    1
    32    29    31    1
    33    29    32    1
    34    14    32    1
    35    32    33    1
    36    33    34    1
    37    34    35    1
    38    13    35    1
    39    35    36    1
    40    35    37    1
    41    10    37    1
    42    37    38    1
    43    37    39    1
    44    39    40    1
    45     7    40    1
    46    40    41    1
    47    41    42    1
    48    42    43    2
    49    42    44    1
    50    44    45   ar
    51    45    46   ar
    52    46    47   ar
    53    47    48    1
    54    47    49   ar
    55    49    50   ar
    56    44    50   ar
