REMARK  Name = cpd320.pdb
REMARK  6 active torsions:
REMARK  status: ('A' for Active; 'I' for Inactive)
REMARK    1  A    between atoms: C_1  and  O_2
REMARK    2  A    between atoms: O_2  and  C_3
REMARK    3  A    between atoms: C_12  and  O_13
REMARK    4  A    between atoms: N_19  and  C_20
REMARK    5  A    between atoms: C_20  and  C_21
REMARK    6  A    between atoms: C_21  and  C_22
REMARK                            x       y       z     vdW  Elec       q    Type
REMARK                         _______ _______ _______ _____ _____    ______ ____
ROOT
ATOM      1  C   UNL     1      -0.692   3.704  -0.105  0.00  0.00    +0.162 A 
ATOM      2  C   UNL     1      -1.745   2.953   0.415  0.00  0.00    -0.016 A 
ATOM      3  C   UNL     1      -1.578   1.584   0.687  0.00  0.00    -0.053 A 
ATOM      4  C   UNL     1      -0.349   0.932   0.471  0.00  0.00    -0.026 A 
ATOM      5  C   UNL     1       0.722   1.721   0.056  0.00  0.00    +0.016 A 
ATOM      6  C   UNL     1       0.524   3.055  -0.283  0.00  0.00    +0.167 A 
ATOM      7  O   UNL     1       1.610   3.643  -0.884  0.00  0.00    -0.484 OA
ATOM      8  C   UNL     1       2.702   2.704  -0.708  0.00  0.00    +0.116 C 
ATOM      9  C   UNL     1       3.669   3.384   0.273  0.00  0.00    +0.015 C 
ATOM     10  C   UNL     1       4.720   2.428   0.804  0.00  0.00    +0.077 C 
ATOM     11  C   UNL     1       4.078   1.207   1.363  0.00  0.00    -0.059 C 
ATOM     12  C   UNL     1       2.895   0.743   0.932  0.00  0.00    -0.071 C 
ATOM     13  C   UNL     1       2.129   1.315  -0.256  0.00  0.00    +0.056 C 
ATOM     14  C   UNL     1       2.116   0.313  -1.440  0.00  0.00    -0.023 C 
ATOM     15  C   UNL     1       1.084  -0.834  -1.368  0.00  0.00    +0.000 C 
ATOM     16  N   UNL     1       0.839  -1.292   0.005  0.00  0.00    -0.297 N 
ATOM     17  C   UNL     1      -0.293  -0.574   0.639  0.00  0.00    +0.024 C 
ATOM     18  H   UNL     1       1.691  -1.071   0.521  0.00  0.00    +0.000 HD
ENDROOT
BRANCH   1  20
ATOM     19  C   UNL     1      -1.973   5.701  -0.250  0.00  0.00    +0.079 C 
ATOM     20  O   UNL     1      -0.745   5.020  -0.463  0.00  0.00    -0.491 OA
ENDBRANCH   1  20
BRANCH  10  21
ATOM     21  O   UNL     1       5.599   2.015  -0.231  0.00  0.00    -0.388 OA
ATOM     22  H   UNL     1       5.096   1.546  -0.914  0.00  0.00    +0.000 HD
ENDBRANCH  10  21
BRANCH  16  23
ATOM     23  C   UNL     1       0.628  -2.748   0.093  0.00  0.00    +0.012 C 
BRANCH  23  24
ATOM     24  C   UNL     1       1.943  -3.532  -0.016  0.00  0.00    +0.048 C 
BRANCH  24  25
ATOM     25  C   UNL     1       1.691  -4.970   0.139  0.00  0.00    +0.064 C 
ATOM     26  N   UNL     1       1.482  -6.105   0.260  0.00  0.00    -0.197 NA
ENDBRANCH  24  25
ENDBRANCH  23  24
ENDBRANCH  16  23
TORSDOF 5
