MODEL 1
REMARK VINA RESULT:    -7.172      0.000      0.000
REMARK INTER + INTRA:          -9.413
REMARK INTER:                  -9.059
REMARK INTRA:                  -0.354
REMARK UNBOUND:                -0.354
REMARK  Name = cpd320.pdb
REMARK  6 active torsions:
REMARK  status: ('A' for Active; 'I' for Inactive)
REMARK    1  A    between atoms: C_1  and  O_2
REMARK    2  A    between atoms: O_2  and  C_3
REMARK    3  A    between atoms: C_12  and  O_13
REMARK    4  A    between atoms: N_19  and  C_20
REMARK    5  A    between atoms: C_20  and  C_21
REMARK    6  A    between atoms: C_21  and  C_22
REMARK                            x       y       z     vdW  Elec       q    Type
REMARK                         _______ _______ _______ _____ _____    ______ ____
ROOT
ATOM      1  C   UNL     1      39.395 -35.886 -31.471  0.00  0.00    +0.162 A 
ATOM      2  C   UNL     1      39.415 -34.523 -31.761  0.00  0.00    -0.016 A 
ATOM      3  C   UNL     1      38.257 -33.743 -31.600  0.00  0.00    -0.053 A 
ATOM      4  C   UNL     1      37.054 -34.296 -31.122  0.00  0.00    -0.026 A 
ATOM      5  C   UNL     1      37.082 -35.633 -30.733  0.00  0.00    +0.016 A 
ATOM      6  C   UNL     1      38.210 -36.412 -30.969  0.00  0.00    +0.167 A 
ATOM      7  O   UNL     1      38.018 -37.753 -30.743  0.00  0.00    -0.484 OA
ATOM      8  C   UNL     1      36.739 -37.848 -30.065  0.00  0.00    +0.116 C 
ATOM      9  C   UNL     1      37.070 -38.296 -28.633  0.00  0.00    +0.015 C 
ATOM     10  C   UNL     1      35.884 -38.161 -27.697  0.00  0.00    +0.077 C 
ATOM     11  C   UNL     1      35.319 -36.786 -27.767  0.00  0.00    -0.059 C 
ATOM     12  C   UNL     1      35.409 -36.016 -28.862  0.00  0.00    -0.071 C 
ATOM     13  C   UNL     1      35.973 -36.485 -30.199  0.00  0.00    +0.056 C 
ATOM     14  C   UNL     1      34.853 -36.586 -31.267  0.00  0.00    -0.023 C 
ATOM     15  C   UNL     1      34.422 -35.268 -31.948  0.00  0.00    +0.000 C 
ATOM     16  N   UNL     1      34.498 -34.112 -31.046  0.00  0.00    -0.297 N 
ATOM     17  C   UNL     1      35.811 -33.427 -31.125  0.00  0.00    +0.024 C 
ATOM     18  H   UNL     1      34.388 -34.493 -30.106  0.00  0.00    +0.000 HD
ENDROOT
BRANCH   1  20
ATOM     19  C   UNL     1      41.520 -36.654 -30.732  0.00  0.00    +0.079 C 
ATOM     20  O   UNL     1      40.432 -36.758 -31.639  0.00  0.00    -0.491 OA
ENDBRANCH   1  20
BRANCH  10  21
ATOM     21  O   UNL     1      34.852 -39.068 -28.053  0.00  0.00    -0.388 OA
ATOM     22  H   UNL     1      35.020 -39.928 -27.639  0.00  0.00    +0.000 HD
ENDBRANCH  10  21
BRANCH  16  23
ATOM     23  C   UNL     1      33.408 -33.144 -31.265  0.00  0.00    +0.012 C 
BRANCH  23  24
ATOM     24  C   UNL     1      33.701 -31.785 -30.614  0.00  0.00    +0.048 C 
BRANCH  24  25
ATOM     25  C   UNL     1      32.448 -31.058 -30.372  0.00  0.00    +0.064 C 
ATOM     26  N   UNL     1      31.462 -30.481 -30.171  0.00  0.00    -0.197 NA
ENDBRANCH  24  25
ENDBRANCH  23  24
ENDBRANCH  16  23
TORSDOF 5
ENDMDL
MODEL 2
REMARK VINA RESULT:    -6.673      3.155      5.951
REMARK INTER + INTRA:          -8.782
REMARK INTER:                  -8.439
REMARK INTRA:                  -0.343
REMARK UNBOUND:                -0.354
REMARK  Name = cpd320.pdb
REMARK  6 active torsions:
REMARK  status: ('A' for Active; 'I' for Inactive)
REMARK    1  A    between atoms: C_1  and  O_2
REMARK    2  A    between atoms: O_2  and  C_3
REMARK    3  A    between atoms: C_12  and  O_13
REMARK    4  A    between atoms: N_19  and  C_20
REMARK    5  A    between atoms: C_20  and  C_21
REMARK    6  A    between atoms: C_21  and  C_22
REMARK                            x       y       z     vdW  Elec       q    Type
REMARK                         _______ _______ _______ _____ _____    ______ ____
ROOT
ATOM      1  C   UNL     1      34.183 -35.043 -29.189  0.00  0.00    +0.162 A 
ATOM      2  C   UNL     1      34.767 -34.039 -29.961  0.00  0.00    -0.016 A 
ATOM      3  C   UNL     1      35.949 -34.288 -30.679  0.00  0.00    -0.053 A 
ATOM      4  C   UNL     1      36.568 -35.552 -30.668  0.00  0.00    -0.026 A 
ATOM      5  C   UNL     1      35.912 -36.572 -29.982  0.00  0.00    +0.016 A 
ATOM      6  C   UNL     1      34.788 -36.294 -29.213  0.00  0.00    +0.167 A 
ATOM      7  O   UNL     1      34.384 -37.340 -28.420  0.00  0.00    -0.484 OA
ATOM      8  C   UNL     1      35.145 -38.487 -28.878  0.00  0.00    +0.116 C 
ATOM      9  C   UNL     1      34.120 -39.417 -29.544  0.00  0.00    +0.015 C 
ATOM     10  C   UNL     1      34.778 -40.525 -30.342  0.00  0.00    +0.077 C 
ATOM     11  C   UNL     1      35.766 -39.960 -31.301  0.00  0.00    -0.059 C 
ATOM     12  C   UNL     1      36.413 -38.804 -31.084  0.00  0.00    -0.071 C 
ATOM     13  C   UNL     1      36.324 -37.999 -29.792  0.00  0.00    +0.056 C 
ATOM     14  C   UNL     1      37.670 -38.039 -29.022  0.00  0.00    -0.023 C 
ATOM     15  C   UNL     1      38.777 -37.077 -29.507  0.00  0.00    +0.000 C 
ATOM     16  N   UNL     1      38.750 -36.867 -30.960  0.00  0.00    -0.297 N 
ATOM     17  C   UNL     1      37.920 -35.698 -31.339  0.00  0.00    +0.024 C 
ATOM     18  H   UNL     1      38.320 -37.707 -31.348  0.00  0.00    +0.000 HD
ENDROOT
BRANCH   1  20
ATOM     19  C   UNL     1      32.109 -33.948 -28.804  0.00  0.00    +0.079 C 
ATOM     20  O   UNL     1      33.074 -34.910 -28.405  0.00  0.00    -0.491 OA
ENDBRANCH   1  20
BRANCH  10  21
ATOM     21  O   UNL     1      35.472 -41.422 -29.489  0.00  0.00    -0.388 OA
ATOM     22  H   UNL     1      35.372 -41.135 -28.569  0.00  0.00    +0.000 HD
ENDBRANCH  10  21
BRANCH  16  23
ATOM     23  C   UNL     1      40.097 -36.743 -31.545  0.00  0.00    +0.012 C 
BRANCH  23  24
ATOM     24  C   UNL     1      40.913 -35.620 -30.890  0.00  0.00    +0.048 C 
BRANCH  24  25
ATOM     25  C   UNL     1      42.325 -36.009 -30.792  0.00  0.00    +0.064 C 
ATOM     26  N   UNL     1      43.441 -36.313 -30.705  0.00  0.00    -0.197 NA
ENDBRANCH  24  25
ENDBRANCH  23  24
ENDBRANCH  16  23
TORSDOF 5
ENDMDL
MODEL 3
REMARK VINA RESULT:    -6.656      3.088      6.437
REMARK INTER + INTRA:          -8.761
REMARK INTER:                  -8.397
REMARK INTRA:                  -0.364
REMARK UNBOUND:                -0.354
REMARK  Name = cpd320.pdb
REMARK  6 active torsions:
REMARK  status: ('A' for Active; 'I' for Inactive)
REMARK    1  A    between atoms: C_1  and  O_2
REMARK    2  A    between atoms: O_2  and  C_3
REMARK    3  A    between atoms: C_12  and  O_13
REMARK    4  A    between atoms: N_19  and  C_20
REMARK    5  A    between atoms: C_20  and  C_21
REMARK    6  A    between atoms: C_21  and  C_22
REMARK                            x       y       z     vdW  Elec       q    Type
REMARK                         _______ _______ _______ _____ _____    ______ ____
ROOT
ATOM      1  C   UNL     1      33.486 -36.677 -27.225  0.00  0.00    +0.162 A 
ATOM      2  C   UNL     1      34.724 -37.255 -26.951  0.00  0.00    -0.016 A 
ATOM      3  C   UNL     1      35.828 -37.002 -27.784  0.00  0.00    -0.053 A 
ATOM      4  C   UNL     1      35.734 -36.145 -28.897  0.00  0.00    -0.026 A 
ATOM      5  C   UNL     1      34.519 -35.490 -29.090  0.00  0.00    +0.016 A 
ATOM      6  C   UNL     1      33.415 -35.808 -28.308  0.00  0.00    +0.167 A 
ATOM      7  O   UNL     1      32.240 -35.255 -28.753  0.00  0.00    -0.484 OA
ATOM      8  C   UNL     1      32.628 -34.291 -29.765  0.00  0.00    +0.116 C 
ATOM      9  C   UNL     1      32.314 -32.915 -29.159  0.00  0.00    +0.015 C 
ATOM     10  C   UNL     1      32.929 -31.779 -29.954  0.00  0.00    +0.077 C 
ATOM     11  C   UNL     1      34.385 -32.014 -30.157  0.00  0.00    -0.059 C 
ATOM     12  C   UNL     1      34.927 -33.241 -30.196  0.00  0.00    -0.071 C 
ATOM     13  C   UNL     1      34.123 -34.537 -30.175  0.00  0.00    +0.056 C 
ATOM     14  C   UNL     1      34.207 -35.263 -31.543  0.00  0.00    -0.023 C 
ATOM     15  C   UNL     1      35.480 -36.095 -31.810  0.00  0.00    +0.000 C 
ATOM     16  N   UNL     1      36.679 -35.513 -31.195  0.00  0.00    -0.297 N 
ATOM     17  C   UNL     1      36.922 -36.047 -29.833  0.00  0.00    +0.024 C 
ATOM     18  H   UNL     1      36.488 -34.514 -31.121  0.00  0.00    +0.000 HD
ENDROOT
BRANCH   1  20
ATOM     19  C   UNL     1      32.268 -36.380 -25.205  0.00  0.00    +0.079 C 
ATOM     20  O   UNL     1      32.330 -36.888 -26.530  0.00  0.00    -0.491 OA
ENDBRANCH   1  20
BRANCH  10  21
ATOM     21  O   UNL     1      32.329 -31.675 -31.236  0.00  0.00    -0.388 OA
ATOM     22  H   UNL     1      31.549 -31.102 -31.182  0.00  0.00    +0.000 HD
ENDBRANCH  10  21
BRANCH  16  23
ATOM     23  C   UNL     1      37.885 -35.677 -32.026  0.00  0.00    +0.012 C 
BRANCH  23  24
ATOM     24  C   UNL     1      39.136 -35.958 -31.183  0.00  0.00    +0.048 C 
BRANCH  24  25
ATOM     25  C   UNL     1      40.337 -35.486 -31.884  0.00  0.00    +0.064 C 
ATOM     26  N   UNL     1      41.291 -35.112 -32.430  0.00  0.00    -0.197 NA
ENDBRANCH  24  25
ENDBRANCH  23  24
ENDBRANCH  16  23
TORSDOF 5
ENDMDL
MODEL 4
REMARK VINA RESULT:    -6.627      3.187      6.392
REMARK INTER + INTRA:          -8.725
REMARK INTER:                  -8.355
REMARK INTRA:                  -0.370
REMARK UNBOUND:                -0.354
REMARK  Name = cpd320.pdb
REMARK  6 active torsions:
REMARK  status: ('A' for Active; 'I' for Inactive)
REMARK    1  A    between atoms: C_1  and  O_2
REMARK    2  A    between atoms: O_2  and  C_3
REMARK    3  A    between atoms: C_12  and  O_13
REMARK    4  A    between atoms: N_19  and  C_20
REMARK    5  A    between atoms: C_20  and  C_21
REMARK    6  A    between atoms: C_21  and  C_22
REMARK                            x       y       z     vdW  Elec       q    Type
REMARK                         _______ _______ _______ _____ _____    ______ ____
ROOT
ATOM      1  C   UNL     1      33.352 -37.274 -26.788  0.00  0.00    +0.162 A 
ATOM      2  C   UNL     1      34.578 -37.807 -26.390  0.00  0.00    -0.016 A 
ATOM      3  C   UNL     1      35.742 -37.548 -27.133  0.00  0.00    -0.053 A 
ATOM      4  C   UNL     1      35.722 -36.731 -28.280  0.00  0.00    -0.026 A 
ATOM      5  C   UNL     1      34.512 -36.118 -28.599  0.00  0.00    +0.016 A 
ATOM      6  C   UNL     1      33.353 -36.444 -27.903  0.00  0.00    +0.167 A 
ATOM      7  O   UNL     1      32.206 -35.940 -28.466  0.00  0.00    -0.484 OA
ATOM      8  C   UNL     1      32.655 -34.998 -29.475  0.00  0.00    +0.116 C 
ATOM      9  C   UNL     1      32.253 -33.613 -28.945  0.00  0.00    +0.015 C 
ATOM     10  C   UNL     1      32.904 -32.486 -29.724  0.00  0.00    +0.077 C 
ATOM     11  C   UNL     1      34.378 -32.684 -29.793  0.00  0.00    -0.059 C 
ATOM     12  C   UNL     1      34.953 -33.896 -29.743  0.00  0.00    -0.071 C 
ATOM     13  C   UNL     1      34.185 -35.213 -29.746  0.00  0.00    +0.056 C 
ATOM     14  C   UNL     1      34.406 -35.980 -31.076  0.00  0.00    -0.023 C 
ATOM     15  C   UNL     1      35.720 -36.783 -31.204  0.00  0.00    +0.000 C 
ATOM     16  N   UNL     1      36.845 -36.146 -30.509  0.00  0.00    -0.297 N 
ATOM     17  C   UNL     1      36.984 -36.628 -29.114  0.00  0.00    +0.024 C 
ATOM     18  H   UNL     1      36.621 -35.151 -30.486  0.00  0.00    +0.000 HD
ENDROOT
BRANCH   1  20
ATOM     19  C   UNL     1      31.622 -38.815 -26.258  0.00  0.00    +0.079 C 
ATOM     20  O   UNL     1      32.147 -37.497 -26.188  0.00  0.00    -0.491 OA
ENDBRANCH   1  20
BRANCH  10  21
ATOM     21  O   UNL     1      32.415 -32.441 -31.056  0.00  0.00    -0.388 OA
ATOM     22  H   UNL     1      31.795 -33.173 -31.197  0.00  0.00    +0.000 HD
ENDBRANCH  10  21
BRANCH  16  23
ATOM     23  C   UNL     1      38.122 -36.301 -31.228  0.00  0.00    +0.012 C 
BRANCH  23  24
ATOM     24  C   UNL     1      38.438 -35.090 -32.116  0.00  0.00    +0.048 C 
BRANCH  24  25
ATOM     25  C   UNL     1      39.889 -34.876 -32.185  0.00  0.00    +0.064 C 
ATOM     26  N   UNL     1      41.037 -34.715 -32.246  0.00  0.00    -0.197 NA
ENDBRANCH  24  25
ENDBRANCH  23  24
ENDBRANCH  16  23
TORSDOF 5
ENDMDL
MODEL 5
REMARK VINA RESULT:    -6.535     18.047     20.579
REMARK INTER + INTRA:          -8.608
REMARK INTER:                  -8.255
REMARK INTRA:                  -0.353
REMARK UNBOUND:                -0.354
REMARK  Name = cpd320.pdb
REMARK  6 active torsions:
REMARK  status: ('A' for Active; 'I' for Inactive)
REMARK    1  A    between atoms: C_1  and  O_2
REMARK    2  A    between atoms: O_2  and  C_3
REMARK    3  A    between atoms: C_12  and  O_13
REMARK    4  A    between atoms: N_19  and  C_20
REMARK    5  A    between atoms: C_20  and  C_21
REMARK    6  A    between atoms: C_21  and  C_22
REMARK                            x       y       z     vdW  Elec       q    Type
REMARK                         _______ _______ _______ _____ _____    ______ ____
ROOT
ATOM      1  C   UNL     1      46.510 -17.299 -39.982  0.00  0.00    +0.162 A 
ATOM      2  C   UNL     1      45.705 -17.084 -38.864  0.00  0.00    -0.016 A 
ATOM      3  C   UNL     1      44.827 -18.086 -38.414  0.00  0.00    -0.053 A 
ATOM      4  C   UNL     1      44.747 -19.339 -39.051  0.00  0.00    -0.026 A 
ATOM      5  C   UNL     1      45.637 -19.576 -40.097  0.00  0.00    +0.016 A 
ATOM      6  C   UNL     1      46.443 -18.552 -40.581  0.00  0.00    +0.167 A 
ATOM      7  O   UNL     1      47.098 -18.864 -41.747  0.00  0.00    -0.484 OA
ATOM      8  C   UNL     1      46.911 -20.292 -41.923  0.00  0.00    +0.116 C 
ATOM      9  C   UNL     1      48.300 -20.913 -41.714  0.00  0.00    +0.015 C 
ATOM     10  C   UNL     1      48.243 -22.421 -41.566  0.00  0.00    +0.077 C 
ATOM     11  C   UNL     1      47.264 -22.803 -40.512  0.00  0.00    -0.059 C 
ATOM     12  C   UNL     1      46.199 -22.050 -40.198  0.00  0.00    -0.071 C 
ATOM     13  C   UNL     1      45.782 -20.794 -40.956  0.00  0.00    +0.056 C 
ATOM     14  C   UNL     1      44.458 -21.028 -41.729  0.00  0.00    -0.023 C 
ATOM     15  C   UNL     1      43.150 -20.931 -40.913  0.00  0.00    +0.000 C 
ATOM     16  N   UNL     1      43.306 -21.404 -39.533  0.00  0.00    -0.297 N 
ATOM     17  C   UNL     1      43.668 -20.306 -38.604  0.00  0.00    +0.024 C 
ATOM     18  H   UNL     1      44.077 -22.072 -39.560  0.00  0.00    +0.000 HD
ENDROOT
BRANCH   1  20
ATOM     19  C   UNL     1      47.482 -15.132 -39.903  0.00  0.00    +0.079 C 
ATOM     20  O   UNL     1      47.355 -16.391 -40.549  0.00  0.00    -0.491 OA
ENDBRANCH   1  20
BRANCH  10  21
ATOM     21  O   UNL     1      47.830 -23.034 -42.777  0.00  0.00    -0.388 OA
ATOM     22  H   UNL     1      47.360 -23.859 -42.579  0.00  0.00    +0.000 HD
ENDBRANCH  10  21
BRANCH  16  23
ATOM     23  C   UNL     1      42.116 -22.117 -39.035  0.00  0.00    +0.012 C 
BRANCH  23  24
ATOM     24  C   UNL     1      41.451 -21.385 -37.860  0.00  0.00    +0.048 C 
BRANCH  24  25
ATOM     25  C   UNL     1      41.061 -22.345 -36.820  0.00  0.00    +0.064 C 
ATOM     26  N   UNL     1      40.744 -23.097 -35.995  0.00  0.00    -0.197 NA
ENDBRANCH  24  25
ENDBRANCH  23  24
ENDBRANCH  16  23
TORSDOF 5
ENDMDL
MODEL 6
REMARK VINA RESULT:    -6.321     18.008     19.780
REMARK INTER + INTRA:          -8.338
REMARK INTER:                  -7.986
REMARK INTRA:                  -0.352
REMARK UNBOUND:                -0.354
REMARK  Name = cpd320.pdb
REMARK  6 active torsions:
REMARK  status: ('A' for Active; 'I' for Inactive)
REMARK    1  A    between atoms: C_1  and  O_2
REMARK    2  A    between atoms: O_2  and  C_3
REMARK    3  A    between atoms: C_12  and  O_13
REMARK    4  A    between atoms: N_19  and  C_20
REMARK    5  A    between atoms: C_20  and  C_21
REMARK    6  A    between atoms: C_21  and  C_22
REMARK                            x       y       z     vdW  Elec       q    Type
REMARK                         _______ _______ _______ _____ _____    ______ ____
ROOT
ATOM      1  C   UNL     1      46.224 -22.377 -41.209  0.00  0.00    +0.162 A 
ATOM      2  C   UNL     1      47.345 -22.251 -40.390  0.00  0.00    -0.016 A 
ATOM      3  C   UNL     1      47.327 -21.384 -39.284  0.00  0.00    -0.053 A 
ATOM      4  C   UNL     1      46.182 -20.637 -38.949  0.00  0.00    -0.026 A 
ATOM      5  C   UNL     1      45.037 -20.858 -39.712  0.00  0.00    +0.016 A 
ATOM      6  C   UNL     1      45.091 -21.658 -40.848  0.00  0.00    +0.167 A 
ATOM      7  O   UNL     1      43.956 -21.605 -41.619  0.00  0.00    -0.484 OA
ATOM      8  C   UNL     1      42.972 -20.911 -40.809  0.00  0.00    +0.116 C 
ATOM      9  C   UNL     1      41.920 -21.971 -40.450  0.00  0.00    +0.015 C 
ATOM     10  C   UNL     1      40.973 -21.500 -39.362  0.00  0.00    +0.077 C 
ATOM     11  C   UNL     1      41.738 -21.008 -38.184  0.00  0.00    -0.059 C 
ATOM     12  C   UNL     1      42.972 -20.490 -38.280  0.00  0.00    -0.071 C 
ATOM     13  C   UNL     1      43.688 -20.216 -39.598  0.00  0.00    +0.056 C 
ATOM     14  C   UNL     1      43.831 -18.692 -39.844  0.00  0.00    -0.023 C 
ATOM     15  C   UNL     1      44.983 -17.974 -39.107  0.00  0.00    +0.000 C 
ATOM     16  N   UNL     1      45.256 -18.549 -37.784  0.00  0.00    -0.297 N 
ATOM     17  C   UNL     1      46.291 -19.610 -37.839  0.00  0.00    +0.024 C 
ATOM     18  H   UNL     1      44.376 -18.972 -37.485  0.00  0.00    +0.000 HD
ENDROOT
BRANCH   1  20
ATOM     19  C   UNL     1      47.177 -24.075 -42.571  0.00  0.00    +0.079 C 
ATOM     20  O   UNL     1      46.136 -23.137 -42.339  0.00  0.00    -0.491 OA
ENDBRANCH   1  20
BRANCH  10  21
ATOM     21  O   UNL     1      40.162 -20.431 -39.824  0.00  0.00    -0.388 OA
ATOM     22  H   UNL     1      40.050 -19.781 -39.114  0.00  0.00    +0.000 HD
ENDBRANCH  10  21
BRANCH  16  23
ATOM     23  C   UNL     1      45.626 -17.532 -36.783  0.00  0.00    +0.012 C 
BRANCH  23  24
ATOM     24  C   UNL     1      46.994 -17.815 -36.148  0.00  0.00    +0.048 C 
BRANCH  24  25
ATOM     25  C   UNL     1      46.902 -17.730 -34.685  0.00  0.00    +0.064 C 
ATOM     26  N   UNL     1      46.822 -17.656 -33.530  0.00  0.00    -0.197 NA
ENDBRANCH  24  25
ENDBRANCH  23  24
ENDBRANCH  16  23
TORSDOF 5
ENDMDL
MODEL 7
REMARK VINA RESULT:    -6.262     14.935     17.442
REMARK INTER + INTRA:          -8.263
REMARK INTER:                  -7.932
REMARK INTRA:                  -0.331
REMARK UNBOUND:                -0.354
REMARK  Name = cpd320.pdb
REMARK  6 active torsions:
REMARK  status: ('A' for Active; 'I' for Inactive)
REMARK    1  A    between atoms: C_1  and  O_2
REMARK    2  A    between atoms: O_2  and  C_3
REMARK    3  A    between atoms: C_12  and  O_13
REMARK    4  A    between atoms: N_19  and  C_20
REMARK    5  A    between atoms: C_20  and  C_21
REMARK    6  A    between atoms: C_21  and  C_22
REMARK                            x       y       z     vdW  Elec       q    Type
REMARK                         _______ _______ _______ _____ _____    ______ ____
ROOT
ATOM      1  C   UNL     1      40.221 -22.804 -33.670  0.00  0.00    +0.162 A 
ATOM      2  C   UNL     1      40.440 -21.954 -32.587  0.00  0.00    -0.016 A 
ATOM      3  C   UNL     1      41.113 -20.733 -32.763  0.00  0.00    -0.053 A 
ATOM      4  C   UNL     1      41.566 -20.315 -34.029  0.00  0.00    -0.026 A 
ATOM      5  C   UNL     1      41.242 -21.124 -35.116  0.00  0.00    +0.016 A 
ATOM      6  C   UNL     1      40.645 -22.364 -34.918  0.00  0.00    +0.167 A 
ATOM      7  O   UNL     1      40.590 -23.141 -36.049  0.00  0.00    -0.484 OA
ATOM      8  C   UNL     1      40.952 -22.258 -37.141  0.00  0.00    +0.116 C 
ATOM      9  C   UNL     1      39.666 -22.079 -37.963  0.00  0.00    +0.015 C 
ATOM     10  C   UNL     1      39.778 -20.953 -38.973  0.00  0.00    +0.077 C 
ATOM     11  C   UNL     1      40.230 -19.700 -38.308  0.00  0.00    -0.059 C 
ATOM     12  C   UNL     1      40.986 -19.695 -37.200  0.00  0.00    -0.071 C 
ATOM     13  C   UNL     1      41.586 -20.944 -36.563  0.00  0.00    +0.056 C 
ATOM     14  C   UNL     1      43.128 -20.960 -36.722  0.00  0.00    -0.023 C 
ATOM     15  C   UNL     1      43.939 -20.103 -35.726  0.00  0.00    +0.000 C 
ATOM     16  N   UNL     1      43.238 -18.874 -35.334  0.00  0.00    -0.297 N 
ATOM     17  C   UNL     1      42.419 -19.064 -34.112  0.00  0.00    +0.024 C 
ATOM     18  H   UNL     1      42.614 -18.658 -36.111  0.00  0.00    +0.000 HD
ENDROOT
BRANCH   1  20
ATOM     19  C   UNL     1      38.215 -24.079 -33.663  0.00  0.00    +0.079 C 
ATOM     20  O   UNL     1      39.634 -24.035 -33.618  0.00  0.00    -0.491 OA
ENDBRANCH   1  20
BRANCH  10  21
ATOM     21  O   UNL     1      40.726 -21.269 -39.981  0.00  0.00    -0.388 OA
ATOM     22  H   UNL     1      40.459 -22.085 -40.431  0.00  0.00    +0.000 HD
ENDBRANCH  10  21
BRANCH  16  23
ATOM     23  C   UNL     1      44.148 -17.727 -35.160  0.00  0.00    +0.012 C 
BRANCH  23  24
ATOM     24  C   UNL     1      45.570 -18.037 -35.648  0.00  0.00    +0.048 C 
BRANCH  24  25
ATOM     25  C   UNL     1      46.524 -17.924 -34.538  0.00  0.00    +0.064 C 
ATOM     26  N   UNL     1      47.282 -17.844 -33.663  0.00  0.00    -0.197 NA
ENDBRANCH  24  25
ENDBRANCH  23  24
ENDBRANCH  16  23
TORSDOF 5
ENDMDL
MODEL 8
REMARK VINA RESULT:    -6.201      3.399      6.691
REMARK INTER + INTRA:          -8.187
REMARK INTER:                  -7.831
REMARK INTRA:                  -0.356
REMARK UNBOUND:                -0.354
REMARK  Name = cpd320.pdb
REMARK  6 active torsions:
REMARK  status: ('A' for Active; 'I' for Inactive)
REMARK    1  A    between atoms: C_1  and  O_2
REMARK    2  A    between atoms: O_2  and  C_3
REMARK    3  A    between atoms: C_12  and  O_13
REMARK    4  A    between atoms: N_19  and  C_20
REMARK    5  A    between atoms: C_20  and  C_21
REMARK    6  A    between atoms: C_21  and  C_22
REMARK                            x       y       z     vdW  Elec       q    Type
REMARK                         _______ _______ _______ _____ _____    ______ ____
ROOT
ATOM      1  C   UNL     1      33.271 -33.844 -29.403  0.00  0.00    +0.162 A 
ATOM      2  C   UNL     1      32.629 -34.353 -28.275  0.00  0.00    -0.016 A 
ATOM      3  C   UNL     1      32.877 -35.668 -27.847  0.00  0.00    -0.053 A 
ATOM      4  C   UNL     1      33.789 -36.505 -28.517  0.00  0.00    -0.026 A 
ATOM      5  C   UNL     1      34.503 -35.944 -29.575  0.00  0.00    +0.016 A 
ATOM      6  C   UNL     1      34.193 -34.670 -30.036  0.00  0.00    +0.167 A 
ATOM      7  O   UNL     1      34.816 -34.338 -31.214  0.00  0.00    -0.484 OA
ATOM      8  C   UNL     1      35.811 -35.373 -31.427  0.00  0.00    +0.116 C 
ATOM      9  C   UNL     1      37.168 -34.676 -31.244  0.00  0.00    +0.015 C 
ATOM     10  C   UNL     1      38.314 -35.664 -31.137  0.00  0.00    +0.077 C 
ATOM     11  C   UNL     1      38.029 -36.680 -30.087  0.00  0.00    -0.059 C 
ATOM     12  C   UNL     1      36.784 -37.046 -29.747  0.00  0.00    -0.071 C 
ATOM     13  C   UNL     1      35.523 -36.580 -30.467  0.00  0.00    +0.056 C 
ATOM     14  C   UNL     1      34.862 -37.752 -31.239  0.00  0.00    -0.023 C 
ATOM     15  C   UNL     1      33.991 -38.723 -30.412  0.00  0.00    +0.000 C 
ATOM     16  N   UNL     1      34.492 -38.913 -29.046  0.00  0.00    -0.297 N 
ATOM     17  C   UNL     1      33.884 -37.957 -28.090  0.00  0.00    +0.024 C 
ATOM     18  H   UNL     1      35.494 -38.726 -29.096  0.00  0.00    +0.000 HD
ENDROOT
BRANCH   1  20
ATOM     19  C   UNL     1      31.850 -31.955 -29.651  0.00  0.00    +0.079 C 
ATOM     20  O   UNL     1      33.074 -32.609 -29.951  0.00  0.00    -0.491 OA
ENDBRANCH   1  20
BRANCH  10  21
ATOM     21  O   UNL     1      38.505 -36.354 -32.362  0.00  0.00    -0.388 OA
ATOM     22  H   UNL     1      38.643 -37.297 -32.184  0.00  0.00    +0.000 HD
ENDBRANCH  10  21
BRANCH  16  23
ATOM     23  C   UNL     1      34.319 -40.294 -28.560  0.00  0.00    +0.012 C 
BRANCH  23  24
ATOM     24  C   UNL     1      35.531 -41.179 -28.882  0.00  0.00    +0.048 C 
BRANCH  24  25
ATOM     25  C   UNL     1      35.871 -42.015 -27.725  0.00  0.00    +0.064 C 
ATOM     26  N   UNL     1      36.142 -42.684 -26.816  0.00  0.00    -0.197 NA
ENDBRANCH  24  25
ENDBRANCH  23  24
ENDBRANCH  16  23
TORSDOF 5
ENDMDL
MODEL 9
REMARK VINA RESULT:    -6.142     16.695     18.904
REMARK INTER + INTRA:          -8.112
REMARK INTER:                  -7.767
REMARK INTRA:                  -0.345
REMARK UNBOUND:                -0.354
REMARK  Name = cpd320.pdb
REMARK  6 active torsions:
REMARK  status: ('A' for Active; 'I' for Inactive)
REMARK    1  A    between atoms: C_1  and  O_2
REMARK    2  A    between atoms: O_2  and  C_3
REMARK    3  A    between atoms: C_12  and  O_13
REMARK    4  A    between atoms: N_19  and  C_20
REMARK    5  A    between atoms: C_20  and  C_21
REMARK    6  A    between atoms: C_21  and  C_22
REMARK                            x       y       z     vdW  Elec       q    Type
REMARK                         _______ _______ _______ _____ _____    ______ ____
ROOT
ATOM      1  C   UNL     1      45.597 -21.553 -40.947  0.00  0.00    +0.162 A 
ATOM      2  C   UNL     1      46.795 -21.436 -40.245  0.00  0.00    -0.016 A 
ATOM      3  C   UNL     1      46.807 -20.931 -38.933  0.00  0.00    -0.053 A 
ATOM      4  C   UNL     1      45.621 -20.551 -38.277  0.00  0.00    -0.026 A 
ATOM      5  C   UNL     1      44.423 -20.778 -38.952  0.00  0.00    +0.016 A 
ATOM      6  C   UNL     1      44.431 -21.205 -40.276  0.00  0.00    +0.167 A 
ATOM      7  O   UNL     1      43.197 -21.169 -40.878  0.00  0.00    -0.484 OA
ATOM      8  C   UNL     1      42.251 -20.938 -39.803  0.00  0.00    +0.116 C 
ATOM      9  C   UNL     1      41.453 -22.245 -39.676  0.00  0.00    +0.015 C 
ATOM     10  C   UNL     1      40.622 -22.293 -38.408  0.00  0.00    +0.077 C 
ATOM     11  C   UNL     1      41.468 -22.003 -37.219  0.00  0.00    -0.059 C 
ATOM     12  C   UNL     1      42.572 -21.241 -37.278  0.00  0.00    -0.071 C 
ATOM     13  C   UNL     1      43.022 -20.476 -38.518  0.00  0.00    +0.056 C 
ATOM     14  C   UNL     1      42.876 -18.946 -38.308  0.00  0.00    -0.023 C 
ATOM     15  C   UNL     1      43.995 -18.245 -37.507  0.00  0.00    +0.000 C 
ATOM     16  N   UNL     1      44.558 -19.096 -36.453  0.00  0.00    -0.297 N 
ATOM     17  C   UNL     1      45.731 -19.870 -36.927  0.00  0.00    +0.024 C 
ATOM     18  H   UNL     1      43.816 -19.752 -36.208  0.00  0.00    +0.000 HD
ENDROOT
BRANCH   1  20
ATOM     19  C   UNL     1      46.427 -22.893 -42.726  0.00  0.00    +0.079 C 
ATOM     20  O   UNL     1      45.461 -21.973 -42.239  0.00  0.00    -0.491 OA
ENDBRANCH   1  20
BRANCH  10  21
ATOM     21  O   UNL     1      39.586 -21.323 -38.445  0.00  0.00    -0.388 OA
ATOM     22  H   UNL     1      39.378 -21.107 -39.366  0.00  0.00    +0.000 HD
ENDBRANCH  10  21
BRANCH  16  23
ATOM     23  C   UNL     1      44.907 -18.343 -35.235  0.00  0.00    +0.012 C 
BRANCH  23  24
ATOM     24  C   UNL     1      43.754 -18.310 -34.222  0.00  0.00    +0.048 C 
BRANCH  24  25
ATOM     25  C   UNL     1      44.278 -18.139 -32.862  0.00  0.00    +0.064 C 
ATOM     26  N   UNL     1      44.694 -18.014 -31.786  0.00  0.00    -0.197 NA
ENDBRANCH  24  25
ENDBRANCH  23  24
ENDBRANCH  16  23
TORSDOF 5
ENDMDL
MODEL 10
REMARK VINA RESULT:    -5.985      1.779      2.508
REMARK INTER + INTRA:          -7.913
REMARK INTER:                  -7.404
REMARK INTRA:                  -0.509
REMARK UNBOUND:                -0.354
REMARK  Name = cpd320.pdb
REMARK  6 active torsions:
REMARK  status: ('A' for Active; 'I' for Inactive)
REMARK    1  A    between atoms: C_1  and  O_2
REMARK    2  A    between atoms: O_2  and  C_3
REMARK    3  A    between atoms: C_12  and  O_13
REMARK    4  A    between atoms: N_19  and  C_20
REMARK    5  A    between atoms: C_20  and  C_21
REMARK    6  A    between atoms: C_21  and  C_22
REMARK                            x       y       z     vdW  Elec       q    Type
REMARK                         _______ _______ _______ _____ _____    ______ ____
ROOT
ATOM      1  C   UNL     1      38.258 -37.807 -29.115  0.00  0.00    +0.162 A 
ATOM      2  C   UNL     1      38.810 -36.821 -29.931  0.00  0.00    -0.016 A 
ATOM      3  C   UNL     1      37.986 -35.867 -30.553  0.00  0.00    -0.053 A 
ATOM      4  C   UNL     1      36.592 -35.855 -30.358  0.00  0.00    -0.026 A 
ATOM      5  C   UNL     1      36.071 -36.778 -29.453  0.00  0.00    +0.016 A 
ATOM      6  C   UNL     1      36.885 -37.764 -28.906  0.00  0.00    +0.167 A 
ATOM      7  O   UNL     1      36.198 -38.731 -28.214  0.00  0.00    -0.484 OA
ATOM      8  C   UNL     1      34.847 -38.219 -28.076  0.00  0.00    +0.116 C 
ATOM      9  C   UNL     1      34.677 -37.918 -26.580  0.00  0.00    +0.015 C 
ATOM     10  C   UNL     1      33.433 -37.099 -26.293  0.00  0.00    +0.077 C 
ATOM     11  C   UNL     1      33.406 -35.878 -27.145  0.00  0.00    -0.059 C 
ATOM     12  C   UNL     1      33.997 -35.816 -28.348  0.00  0.00    -0.071 C 
ATOM     13  C   UNL     1      34.647 -37.004 -29.049  0.00  0.00    +0.056 C 
ATOM     14  C   UNL     1      33.828 -37.426 -30.297  0.00  0.00    -0.023 C 
ATOM     15  C   UNL     1      34.040 -36.594 -31.581  0.00  0.00    +0.000 C 
ATOM     16  N   UNL     1      34.306 -35.178 -31.302  0.00  0.00    -0.297 N 
ATOM     17  C   UNL     1      35.757 -34.896 -31.184  0.00  0.00    +0.024 C 
ATOM     18  H   UNL     1      33.866 -34.991 -30.401  0.00  0.00    +0.000 HD
ENDROOT
BRANCH   1  20
ATOM     19  C   UNL     1      40.266 -38.540 -28.076  0.00  0.00    +0.079 C 
ATOM     20  O   UNL     1      38.941 -38.819 -28.504  0.00  0.00    -0.491 OA
ENDBRANCH   1  20
BRANCH  10  21
ATOM     21  O   UNL     1      32.259 -37.844 -26.575  0.00  0.00    -0.388 OA
ATOM     22  H   UNL     1      31.835 -37.491 -27.372  0.00  0.00    +0.000 HD
ENDBRANCH  10  21
BRANCH  16  23
ATOM     23  C   UNL     1      33.694 -34.275 -32.294  0.00  0.00    +0.012 C 
BRANCH  23  24
ATOM     24  C   UNL     1      33.538 -32.846 -31.758  0.00  0.00    +0.048 C 
BRANCH  24  25
ATOM     25  C   UNL     1      32.916 -32.867 -30.428  0.00  0.00    +0.064 C 
ATOM     26  N   UNL     1      32.417 -32.880 -29.380  0.00  0.00    -0.197 NA
ENDBRANCH  24  25
ENDBRANCH  23  24
ENDBRANCH  16  23
TORSDOF 5
ENDMDL
MODEL 11
REMARK VINA RESULT:    -5.967     18.139     20.712
REMARK INTER + INTRA:          -7.890
REMARK INTER:                  -7.509
REMARK INTRA:                  -0.381
REMARK UNBOUND:                -0.354
REMARK  Name = cpd320.pdb
REMARK  6 active torsions:
REMARK  status: ('A' for Active; 'I' for Inactive)
REMARK    1  A    between atoms: C_1  and  O_2
REMARK    2  A    between atoms: O_2  and  C_3
REMARK    3  A    between atoms: C_12  and  O_13
REMARK    4  A    between atoms: N_19  and  C_20
REMARK    5  A    between atoms: C_20  and  C_21
REMARK    6  A    between atoms: C_21  and  C_22
REMARK                            x       y       z     vdW  Elec       q    Type
REMARK                         _______ _______ _______ _____ _____    ______ ____
ROOT
ATOM      1  C   UNL     1      42.412 -16.532 -39.800  0.00  0.00    +0.162 A 
ATOM      2  C   UNL     1      43.295 -16.072 -40.776  0.00  0.00    -0.016 A 
ATOM      3  C   UNL     1      44.236 -16.942 -41.353  0.00  0.00    -0.053 A 
ATOM      4  C   UNL     1      44.307 -18.300 -40.990  0.00  0.00    -0.026 A 
ATOM      5  C   UNL     1      43.346 -18.767 -40.095  0.00  0.00    +0.016 A 
ATOM      6  C   UNL     1      42.472 -17.882 -39.475  0.00  0.00    +0.167 A 
ATOM      7  O   UNL     1      41.738 -18.444 -38.459  0.00  0.00    -0.484 OA
ATOM      8  C   UNL     1      41.957 -19.874 -38.573  0.00  0.00    +0.116 C 
ATOM      9  C   UNL     1      40.609 -20.457 -39.023  0.00  0.00    +0.015 C 
ATOM     10  C   UNL     1      40.727 -21.898 -39.481  0.00  0.00    +0.077 C 
ATOM     11  C   UNL     1      41.797 -22.033 -40.506  0.00  0.00    -0.059 C 
ATOM     12  C   UNL     1      42.858 -21.214 -40.564  0.00  0.00    -0.071 C 
ATOM     13  C   UNL     1      43.174 -20.142 -39.527  0.00  0.00    +0.056 C 
ATOM     14  C   UNL     1      44.440 -20.516 -38.713  0.00  0.00    -0.023 C 
ATOM     15  C   UNL     1      45.804 -20.228 -39.378  0.00  0.00    +0.000 C 
ATOM     16  N   UNL     1      45.772 -20.399 -40.836  0.00  0.00    -0.297 N 
ATOM     17  C   UNL     1      45.448 -19.134 -41.539  0.00  0.00    +0.024 C 
ATOM     18  H   UNL     1      45.023 -21.068 -41.014  0.00  0.00    +0.000 HD
ENDROOT
BRANCH   1  20
ATOM     19  C   UNL     1      41.697 -14.371 -39.114  0.00  0.00    +0.079 C 
ATOM     20  O   UNL     1      41.496 -15.777 -39.127  0.00  0.00    -0.491 OA
ENDBRANCH   1  20
BRANCH  10  21
ATOM     21  O   UNL     1      41.063 -22.749 -38.395  0.00  0.00    -0.388 OA
ATOM     22  H   UNL     1      42.024 -22.746 -38.269  0.00  0.00    +0.000 HD
ENDBRANCH  10  21
BRANCH  16  23
ATOM     23  C   UNL     1      47.020 -20.971 -41.372  0.00  0.00    +0.012 C 
BRANCH  23  24
ATOM     24  C   UNL     1      47.306 -22.369 -40.807  0.00  0.00    +0.048 C 
BRANCH  24  25
ATOM     25  C   UNL     1      47.154 -23.382 -41.859  0.00  0.00    +0.064 C 
ATOM     26  N   UNL     1      47.025 -24.185 -42.686  0.00  0.00    -0.197 NA
ENDBRANCH  24  25
ENDBRANCH  23  24
ENDBRANCH  16  23
TORSDOF 5
ENDMDL
MODEL 12
REMARK VINA RESULT:    -5.955     18.814     21.322
REMARK INTER + INTRA:          -7.876
REMARK INTER:                  -7.544
REMARK INTRA:                  -0.332
REMARK UNBOUND:                -0.354
REMARK  Name = cpd320.pdb
REMARK  6 active torsions:
REMARK  status: ('A' for Active; 'I' for Inactive)
REMARK    1  A    between atoms: C_1  and  O_2
REMARK    2  A    between atoms: O_2  and  C_3
REMARK    3  A    between atoms: C_12  and  O_13
REMARK    4  A    between atoms: N_19  and  C_20
REMARK    5  A    between atoms: C_20  and  C_21
REMARK    6  A    between atoms: C_21  and  C_22
REMARK                            x       y       z     vdW  Elec       q    Type
REMARK                         _______ _______ _______ _____ _____    ______ ____
ROOT
ATOM      1  C   UNL     1      47.355 -16.620 -40.334  0.00  0.00    +0.162 A 
ATOM      2  C   UNL     1      47.370 -16.052 -39.061  0.00  0.00    -0.016 A 
ATOM      3  C   UNL     1      46.911 -16.780 -37.950  0.00  0.00    -0.053 A 
ATOM      4  C   UNL     1      46.447 -18.103 -38.073  0.00  0.00    -0.026 A 
ATOM      5  C   UNL     1      46.542 -18.692 -39.333  0.00  0.00    +0.016 A 
ATOM      6  C   UNL     1      46.924 -17.937 -40.436  0.00  0.00    +0.167 A 
ATOM      7  O   UNL     1      46.758 -18.584 -41.637  0.00  0.00    -0.484 OA
ATOM      8  C   UNL     1      46.477 -19.965 -41.294  0.00  0.00    +0.116 C 
ATOM      9  C   UNL     1      47.710 -20.757 -41.755  0.00  0.00    +0.015 C 
ATOM     10  C   UNL     1      47.724 -22.173 -41.212  0.00  0.00    +0.077 C 
ATOM     11  C   UNL     1      47.551 -22.165 -39.734  0.00  0.00    -0.059 C 
ATOM     12  C   UNL     1      46.891 -21.195 -39.082  0.00  0.00    -0.071 C 
ATOM     13  C   UNL     1      46.130 -20.065 -39.767  0.00  0.00    +0.056 C 
ATOM     14  C   UNL     1      44.600 -20.223 -39.560  0.00  0.00    -0.023 C 
ATOM     15  C   UNL     1      44.030 -19.744 -38.207  0.00  0.00    +0.000 C 
ATOM     16  N   UNL     1      44.963 -19.950 -37.092  0.00  0.00    -0.297 N 
ATOM     17  C   UNL     1      45.823 -18.765 -36.860  0.00  0.00    +0.024 C 
ATOM     18  H   UNL     1      45.557 -20.729 -37.376  0.00  0.00    +0.000 HD
ENDROOT
BRANCH   1  20
ATOM     19  C   UNL     1      48.081 -14.629 -41.410  0.00  0.00    +0.079 C 
ATOM     20  O   UNL     1      47.718 -16.000 -41.494  0.00  0.00    -0.491 OA
ENDBRANCH   1  20
BRANCH  10  21
ATOM     21  O   UNL     1      46.664 -22.938 -41.764  0.00  0.00    -0.388 OA
ATOM     22  H   UNL     1      46.119 -23.299 -41.048  0.00  0.00    +0.000 HD
ENDBRANCH  10  21
BRANCH  16  23
ATOM     23  C   UNL     1      44.284 -20.336 -35.842  0.00  0.00    +0.012 C 
BRANCH  23  24
ATOM     24  C   UNL     1      45.147 -20.055 -34.604  0.00  0.00    +0.048 C 
BRANCH  24  25
ATOM     25  C   UNL     1      44.354 -19.365 -33.579  0.00  0.00    +0.064 C 
ATOM     26  N   UNL     1      43.730 -18.811 -32.773  0.00  0.00    -0.197 NA
ENDBRANCH  24  25
ENDBRANCH  23  24
ENDBRANCH  16  23
TORSDOF 5
ENDMDL
MODEL 13
REMARK VINA RESULT:    -5.936     17.215     19.763
REMARK INTER + INTRA:          -7.852
REMARK INTER:                  -7.482
REMARK INTRA:                  -0.370
REMARK UNBOUND:                -0.354
REMARK  Name = cpd320.pdb
REMARK  6 active torsions:
REMARK  status: ('A' for Active; 'I' for Inactive)
REMARK    1  A    between atoms: C_1  and  O_2
REMARK    2  A    between atoms: O_2  and  C_3
REMARK    3  A    between atoms: C_12  and  O_13
REMARK    4  A    between atoms: N_19  and  C_20
REMARK    5  A    between atoms: C_20  and  C_21
REMARK    6  A    between atoms: C_21  and  C_22
REMARK                            x       y       z     vdW  Elec       q    Type
REMARK                         _______ _______ _______ _____ _____    ______ ____
ROOT
ATOM      1  C   UNL     1      46.276 -17.964 -36.905  0.00  0.00    +0.162 A 
ATOM      2  C   UNL     1      45.643 -18.416 -35.748  0.00  0.00    -0.016 A 
ATOM      3  C   UNL     1      44.635 -19.392 -35.822  0.00  0.00    -0.053 A 
ATOM      4  C   UNL     1      44.246 -19.962 -37.050  0.00  0.00    -0.026 A 
ATOM      5  C   UNL     1      44.965 -19.579 -38.181  0.00  0.00    +0.016 A 
ATOM      6  C   UNL     1      45.906 -18.558 -38.105  0.00  0.00    +0.167 A 
ATOM      7  O   UNL     1      46.368 -18.136 -39.328  0.00  0.00    -0.484 OA
ATOM      8  C   UNL     1      45.887 -19.119 -40.281  0.00  0.00    +0.116 C 
ATOM      9  C   UNL     1      47.141 -19.862 -40.766  0.00  0.00    +0.015 C 
ATOM     10  C   UNL     1      46.802 -21.121 -41.541  0.00  0.00    +0.077 C 
ATOM     11  C   UNL     1      45.875 -21.982 -40.757  0.00  0.00    -0.059 C 
ATOM     12  C   UNL     1      45.016 -21.491 -39.850  0.00  0.00    -0.071 C 
ATOM     13  C   UNL     1      44.782 -20.004 -39.605  0.00  0.00    +0.056 C 
ATOM     14  C   UNL     1      43.368 -19.580 -40.082  0.00  0.00    -0.023 C 
ATOM     15  C   UNL     1      42.192 -19.889 -39.130  0.00  0.00    +0.000 C 
ATOM     16  N   UNL     1      42.386 -21.131 -38.372  0.00  0.00    -0.297 N 
ATOM     17  C   UNL     1      43.047 -20.890 -37.067  0.00  0.00    +0.024 C 
ATOM     18  H   UNL     1      43.004 -21.705 -38.946  0.00  0.00    +0.000 HD
ENDROOT
BRANCH   1  20
ATOM     19  C   UNL     1      46.790 -15.647 -36.770  0.00  0.00    +0.079 C 
ATOM     20  O   UNL     1      47.225 -16.984 -36.970  0.00  0.00    -0.491 OA
ENDBRANCH   1  20
BRANCH  10  21
ATOM     21  O   UNL     1      46.159 -20.804 -42.767  0.00  0.00    -0.388 OA
ATOM     22  H   UNL     1      46.147 -19.843 -42.886  0.00  0.00    +0.000 HD
ENDBRANCH  10  21
BRANCH  16  23
ATOM     23  C   UNL     1      41.134 -21.882 -38.174  0.00  0.00    +0.012 C 
BRANCH  23  24
ATOM     24  C   UNL     1      40.552 -21.679 -36.769  0.00  0.00    +0.048 C 
BRANCH  24  25
ATOM     25  C   UNL     1      39.732 -22.835 -36.386  0.00  0.00    +0.064 C 
ATOM     26  N   UNL     1      39.077 -23.744 -36.086  0.00  0.00    -0.197 NA
ENDBRANCH  24  25
ENDBRANCH  23  24
ENDBRANCH  16  23
TORSDOF 5
ENDMDL
MODEL 14
REMARK VINA RESULT:    -5.840     18.877     21.498
REMARK INTER + INTRA:          -7.731
REMARK INTER:                  -7.410
REMARK INTRA:                  -0.321
REMARK UNBOUND:                -0.354
REMARK  Name = cpd320.pdb
REMARK  6 active torsions:
REMARK  status: ('A' for Active; 'I' for Inactive)
REMARK    1  A    between atoms: C_1  and  O_2
REMARK    2  A    between atoms: O_2  and  C_3
REMARK    3  A    between atoms: C_12  and  O_13
REMARK    4  A    between atoms: N_19  and  C_20
REMARK    5  A    between atoms: C_20  and  C_21
REMARK    6  A    between atoms: C_21  and  C_22
REMARK                            x       y       z     vdW  Elec       q    Type
REMARK                         _______ _______ _______ _____ _____    ______ ____
ROOT
ATOM      1  C   UNL     1      42.816 -20.903 -39.732  0.00  0.00    +0.162 A 
ATOM      2  C   UNL     1      42.231 -19.657 -39.513  0.00  0.00    -0.016 A 
ATOM      3  C   UNL     1      43.030 -18.514 -39.340  0.00  0.00    -0.053 A 
ATOM      4  C   UNL     1      44.435 -18.578 -39.405  0.00  0.00    -0.026 A 
ATOM      5  C   UNL     1      44.999 -19.809 -39.733  0.00  0.00    +0.016 A 
ATOM      6  C   UNL     1      44.202 -20.945 -39.825  0.00  0.00    +0.167 A 
ATOM      7  O   UNL     1      44.914 -22.116 -39.931  0.00  0.00    -0.484 OA
ATOM      8  C   UNL     1      46.285 -21.711 -40.180  0.00  0.00    +0.116 C 
ATOM      9  C   UNL     1      46.578 -22.137 -41.626  0.00  0.00    +0.015 C 
ATOM     10  C   UNL     1      47.863 -21.530 -42.158  0.00  0.00    +0.077 C 
ATOM     11  C   UNL     1      47.858 -20.053 -41.969  0.00  0.00    -0.059 C 
ATOM     12  C   UNL     1      47.177 -19.446 -40.985  0.00  0.00    -0.071 C 
ATOM     13  C   UNL     1      46.443 -20.181 -39.869  0.00  0.00    +0.056 C 
ATOM     14  C   UNL     1      47.151 -19.966 -38.505  0.00  0.00    -0.023 C 
ATOM     15  C   UNL     1      46.863 -18.636 -37.775  0.00  0.00    +0.000 C 
ATOM     16  N   UNL     1      46.659 -17.514 -38.699  0.00  0.00    -0.297 N 
ATOM     17  C   UNL     1      45.230 -17.335 -39.053  0.00  0.00    +0.024 C 
ATOM     18  H   UNL     1      47.172 -17.762 -39.545  0.00  0.00    +0.000 HD
ENDROOT
BRANCH   1  20
ATOM     19  C   UNL     1      41.127 -22.362 -38.915  0.00  0.00    +0.079 C 
ATOM     20  O   UNL     1      42.155 -22.090 -39.857  0.00  0.00    -0.491 OA
ENDBRANCH   1  20
BRANCH  10  21
ATOM     21  O   UNL     1      48.991 -22.046 -41.468  0.00  0.00    -0.388 OA
ATOM     22  H   UNL     1      49.723 -21.414 -41.526  0.00  0.00    +0.000 HD
ENDBRANCH  10  21
BRANCH  16  23
ATOM     23  C   UNL     1      47.217 -16.247 -38.193  0.00  0.00    +0.012 C 
BRANCH  23  24
ATOM     24  C   UNL     1      47.649 -15.309 -39.328  0.00  0.00    +0.048 C 
BRANCH  24  25
ATOM     25  C   UNL     1      48.566 -14.282 -38.818  0.00  0.00    +0.064 C 
ATOM     26  N   UNL     1      49.298 -13.478 -38.413  0.00  0.00    -0.197 NA
ENDBRANCH  24  25
ENDBRANCH  23  24
ENDBRANCH  16  23
TORSDOF 5
ENDMDL
MODEL 15
REMARK VINA RESULT:    -5.797     19.442     21.853
REMARK INTER + INTRA:          -7.676
REMARK INTER:                  -7.293
REMARK INTRA:                  -0.383
REMARK UNBOUND:                -0.354
REMARK  Name = cpd320.pdb
REMARK  6 active torsions:
REMARK  status: ('A' for Active; 'I' for Inactive)
REMARK    1  A    between atoms: C_1  and  O_2
REMARK    2  A    between atoms: O_2  and  C_3
REMARK    3  A    between atoms: C_12  and  O_13
REMARK    4  A    between atoms: N_19  and  C_20
REMARK    5  A    between atoms: C_20  and  C_21
REMARK    6  A    between atoms: C_21  and  C_22
REMARK                            x       y       z     vdW  Elec       q    Type
REMARK                         _______ _______ _______ _____ _____    ______ ____
ROOT
ATOM      1  C   UNL     1      47.498 -15.637 -39.046  0.00  0.00    +0.162 A 
ATOM      2  C   UNL     1      47.014 -15.712 -40.351  0.00  0.00    -0.016 A 
ATOM      3  C   UNL     1      46.289 -16.838 -40.779  0.00  0.00    -0.053 A 
ATOM      4  C   UNL     1      46.007 -17.909 -39.909  0.00  0.00    -0.026 A 
ATOM      5  C   UNL     1      46.403 -17.767 -38.581  0.00  0.00    +0.016 A 
ATOM      6  C   UNL     1      47.185 -16.686 -38.190  0.00  0.00    +0.167 A 
ATOM      7  O   UNL     1      47.684 -16.792 -36.916  0.00  0.00    -0.484 OA
ATOM      8  C   UNL     1      46.979 -17.911 -36.319  0.00  0.00    +0.116 C 
ATOM      9  C   UNL     1      46.078 -17.295 -35.239  0.00  0.00    +0.015 C 
ATOM     10  C   UNL     1      45.049 -18.278 -34.714  0.00  0.00    +0.077 C 
ATOM     11  C   UNL     1      44.288 -18.885 -35.840  0.00  0.00    -0.059 C 
ATOM     12  C   UNL     1      44.800 -19.032 -37.071  0.00  0.00    -0.071 C 
ATOM     13  C   UNL     1      46.247 -18.727 -37.442  0.00  0.00    +0.056 C 
ATOM     14  C   UNL     1      47.021 -20.031 -37.769  0.00  0.00    -0.023 C 
ATOM     15  C   UNL     1      46.818 -20.623 -39.181  0.00  0.00    +0.000 C 
ATOM     16  N   UNL     1      45.462 -20.406 -39.698  0.00  0.00    -0.297 N 
ATOM     17  C   UNL     1      45.359 -19.153 -40.485  0.00  0.00    +0.024 C 
ATOM     18  H   UNL     1      44.867 -20.318 -38.874  0.00  0.00    +0.000 HD
ENDROOT
BRANCH   1  20
ATOM     19  C   UNL     1      49.115 -13.937 -39.428  0.00  0.00    +0.079 C 
ATOM     20  O   UNL     1      48.260 -14.629 -38.530  0.00  0.00    -0.491 OA
ENDBRANCH   1  20
BRANCH  10  21
ATOM     21  O   UNL     1      45.675 -19.334 -34.001  0.00  0.00    -0.388 OA
ATOM     22  H   UNL     1      46.631 -19.307 -34.158  0.00  0.00    +0.000 HD
ENDBRANCH  10  21
BRANCH  16  23
ATOM     23  C   UNL     1      44.963 -21.544 -40.491  0.00  0.00    +0.012 C 
BRANCH  23  24
ATOM     24  C   UNL     1      45.440 -21.489 -41.948  0.00  0.00    +0.048 C 
BRANCH  24  25
ATOM     25  C   UNL     1      46.228 -22.685 -42.270  0.00  0.00    +0.064 C 
ATOM     26  N   UNL     1      46.843 -23.636 -42.524  0.00  0.00    -0.197 NA
ENDBRANCH  24  25
ENDBRANCH  23  24
ENDBRANCH  16  23
TORSDOF 5
ENDMDL
MODEL 16
REMARK VINA RESULT:    -5.773     16.702     19.336
REMARK INTER + INTRA:          -7.646
REMARK INTER:                  -7.031
REMARK INTRA:                  -0.615
REMARK UNBOUND:                -0.354
REMARK  Name = cpd320.pdb
REMARK  6 active torsions:
REMARK  status: ('A' for Active; 'I' for Inactive)
REMARK    1  A    between atoms: C_1  and  O_2
REMARK    2  A    between atoms: O_2  and  C_3
REMARK    3  A    between atoms: C_12  and  O_13
REMARK    4  A    between atoms: N_19  and  C_20
REMARK    5  A    between atoms: C_20  and  C_21
REMARK    6  A    between atoms: C_21  and  C_22
REMARK                            x       y       z     vdW  Elec       q    Type
REMARK                         _______ _______ _______ _____ _____    ______ ____
ROOT
ATOM      1  C   UNL     1      40.928 -21.585 -37.408  0.00  0.00    +0.162 A 
ATOM      2  C   UNL     1      40.817 -22.318 -38.589  0.00  0.00    -0.016 A 
ATOM      3  C   UNL     1      41.793 -22.204 -39.593  0.00  0.00    -0.053 A 
ATOM      4  C   UNL     1      42.920 -21.375 -39.439  0.00  0.00    -0.026 A 
ATOM      5  C   UNL     1      43.071 -20.735 -38.210  0.00  0.00    +0.016 A 
ATOM      6  C   UNL     1      42.061 -20.795 -37.256  0.00  0.00    +0.167 A 
ATOM      7  O   UNL     1      42.247 -19.942 -36.196  0.00  0.00    -0.484 OA
ATOM      8  C   UNL     1      43.608 -19.456 -36.327  0.00  0.00    +0.116 C 
ATOM      9  C   UNL     1      44.376 -20.077 -35.150  0.00  0.00    +0.015 C 
ATOM     10  C   UNL     1      45.878 -19.920 -35.294  0.00  0.00    +0.077 C 
ATOM     11  C   UNL     1      46.329 -20.422 -36.621  0.00  0.00    -0.059 C 
ATOM     12  C   UNL     1      45.540 -20.423 -37.706  0.00  0.00    -0.071 C 
ATOM     13  C   UNL     1      44.150 -19.799 -37.758  0.00  0.00    +0.056 C 
ATOM     14  C   UNL     1      44.141 -18.542 -38.667  0.00  0.00    -0.023 C 
ATOM     15  C   UNL     1      44.054 -18.785 -40.189  0.00  0.00    +0.000 C 
ATOM     16  N   UNL     1      44.748 -20.009 -40.609  0.00  0.00    -0.297 N 
ATOM     17  C   UNL     1      43.844 -21.185 -40.626  0.00  0.00    +0.024 C 
ATOM     18  H   UNL     1      45.469 -20.167 -39.906  0.00  0.00    +0.000 HD
ENDROOT
BRANCH   1  20
ATOM     19  C   UNL     1      39.879 -22.754 -35.624  0.00  0.00    +0.079 C 
ATOM     20  O   UNL     1      40.022 -21.565 -36.388  0.00  0.00    -0.491 OA
ENDBRANCH   1  20
BRANCH  10  21
ATOM     21  O   UNL     1      46.256 -18.555 -35.200  0.00  0.00    -0.388 OA
ATOM     22  H   UNL     1      46.356 -18.185 -36.091  0.00  0.00    +0.000 HD
ENDBRANCH  10  21
BRANCH  16  23
ATOM     23  C   UNL     1      45.418 -19.868 -41.914  0.00  0.00    +0.012 C 
BRANCH  23  24
ATOM     24  C   UNL     1      46.943 -19.765 -41.774  0.00  0.00    +0.048 C 
BRANCH  24  25
ATOM     25  C   UNL     1      47.445 -20.832 -40.900  0.00  0.00    +0.064 C 
ATOM     26  N   UNL     1      47.846 -21.681 -40.217  0.00  0.00    -0.197 NA
ENDBRANCH  24  25
ENDBRANCH  23  24
ENDBRANCH  16  23
TORSDOF 5
ENDMDL
MODEL 17
REMARK VINA RESULT:    -5.763     20.119     21.752
REMARK INTER + INTRA:          -7.633
REMARK INTER:                  -7.280
REMARK INTRA:                  -0.353
REMARK UNBOUND:                -0.354
REMARK  Name = cpd320.pdb
REMARK  6 active torsions:
REMARK  status: ('A' for Active; 'I' for Inactive)
REMARK    1  A    between atoms: C_1  and  O_2
REMARK    2  A    between atoms: O_2  and  C_3
REMARK    3  A    between atoms: C_12  and  O_13
REMARK    4  A    between atoms: N_19  and  C_20
REMARK    5  A    between atoms: C_20  and  C_21
REMARK    6  A    between atoms: C_21  and  C_22
REMARK                            x       y       z     vdW  Elec       q    Type
REMARK                         _______ _______ _______ _____ _____    ______ ____
ROOT
ATOM      1  C   UNL     1      47.210 -21.030 -39.985  0.00  0.00    +0.162 A 
ATOM      2  C   UNL     1      47.194 -20.423 -41.240  0.00  0.00    -0.016 A 
ATOM      3  C   UNL     1      46.717 -19.109 -41.390  0.00  0.00    -0.053 A 
ATOM      4  C   UNL     1      46.266 -18.356 -40.289  0.00  0.00    -0.026 A 
ATOM      5  C   UNL     1      46.392 -18.939 -39.029  0.00  0.00    +0.016 A 
ATOM      6  C   UNL     1      46.792 -20.265 -38.903  0.00  0.00    +0.167 A 
ATOM      7  O   UNL     1      46.655 -20.768 -37.633  0.00  0.00    -0.484 OA
ATOM      8  C   UNL     1      46.378 -19.619 -36.791  0.00  0.00    +0.116 C 
ATOM      9  C   UNL     1      47.626 -19.448 -35.912  0.00  0.00    +0.015 C 
ATOM     10  C   UNL     1      47.640 -18.120 -35.180  0.00  0.00    +0.077 C 
ATOM     11  C   UNL     1      47.435 -16.997 -36.135  0.00  0.00    -0.059 C 
ATOM     12  C   UNL     1      46.755 -17.131 -37.283  0.00  0.00    -0.071 C 
ATOM     13  C   UNL     1      45.999 -18.391 -37.692  0.00  0.00    +0.056 C 
ATOM     14  C   UNL     1      44.467 -18.148 -37.675  0.00  0.00    -0.023 C 
ATOM     15  C   UNL     1      43.865 -17.427 -38.901  0.00  0.00    +0.000 C 
ATOM     16  N   UNL     1      44.776 -16.433 -39.480  0.00  0.00    -0.297 N 
ATOM     17  C   UNL     1      45.623 -17.009 -40.552  0.00  0.00    +0.024 C 
ATOM     18  H   UNL     1      45.382 -16.140 -38.712  0.00  0.00    +0.000 HD
ENDROOT
BRANCH   1  20
ATOM     19  C   UNL     1      47.943 -23.128 -40.828  0.00  0.00    +0.079 C 
ATOM     20  O   UNL     1      47.592 -22.313 -39.719  0.00  0.00    -0.491 OA
ENDBRANCH   1  20
BRANCH  10  21
ATOM     21  O   UNL     1      46.597 -18.061 -34.218  0.00  0.00    -0.388 OA
ATOM     22  H   UNL     1      46.567 -17.174 -33.829  0.00  0.00    +0.000 HD
ENDBRANCH  10  21
BRANCH  16  23
ATOM     23  C   UNL     1      44.075 -15.235 -39.976  0.00  0.00    +0.012 C 
BRANCH  23  24
ATOM     24  C   UNL     1      44.150 -15.112 -41.505  0.00  0.00    +0.048 C 
BRANCH  24  25
ATOM     25  C   UNL     1      44.403 -13.718 -41.889  0.00  0.00    +0.064 C 
ATOM     26  N   UNL     1      44.613 -12.617 -42.191  0.00  0.00    -0.197 NA
ENDBRANCH  24  25
ENDBRANCH  23  24
ENDBRANCH  16  23
TORSDOF 5
ENDMDL
MODEL 18
REMARK VINA RESULT:    -5.747     25.494     27.658
REMARK INTER + INTRA:          -7.613
REMARK INTER:                  -7.241
REMARK INTRA:                  -0.372
REMARK UNBOUND:                -0.354
REMARK  Name = cpd320.pdb
REMARK  6 active torsions:
REMARK  status: ('A' for Active; 'I' for Inactive)
REMARK    1  A    between atoms: C_1  and  O_2
REMARK    2  A    between atoms: O_2  and  C_3
REMARK    3  A    between atoms: C_12  and  O_13
REMARK    4  A    between atoms: N_19  and  C_20
REMARK    5  A    between atoms: C_20  and  C_21
REMARK    6  A    between atoms: C_21  and  C_22
REMARK                            x       y       z     vdW  Elec       q    Type
REMARK                         _______ _______ _______ _____ _____    ______ ____
ROOT
ATOM      1  C   UNL     1      47.600 -30.399 -54.414  0.00  0.00    +0.162 A 
ATOM      2  C   UNL     1      47.251 -30.730 -53.105  0.00  0.00    -0.016 A 
ATOM      3  C   UNL     1      46.671 -31.977 -52.815  0.00  0.00    -0.053 A 
ATOM      4  C   UNL     1      46.444 -32.938 -53.819  0.00  0.00    -0.026 A 
ATOM      5  C   UNL     1      46.899 -32.634 -55.101  0.00  0.00    +0.016 A 
ATOM      6  C   UNL     1      47.400 -31.369 -55.389  0.00  0.00    +0.167 A 
ATOM      7  O   UNL     1      47.598 -31.141 -56.729  0.00  0.00    -0.484 OA
ATOM      8  C   UNL     1      47.454 -32.437 -57.364  0.00  0.00    +0.116 C 
ATOM      9  C   UNL     1      48.861 -32.805 -57.861  0.00  0.00    +0.015 C 
ATOM     10  C   UNL     1      48.962 -34.257 -58.287  0.00  0.00    +0.077 C 
ATOM     11  C   UNL     1      48.468 -35.152 -57.206  0.00  0.00    -0.059 C 
ATOM     12  C   UNL     1      47.546 -34.771 -56.308  0.00  0.00    -0.071 C 
ATOM     13  C   UNL     1      46.797 -33.444 -56.356  0.00  0.00    +0.056 C 
ATOM     14  C   UNL     1      45.300 -33.666 -56.696  0.00  0.00    -0.023 C 
ATOM     15  C   UNL     1      44.382 -34.105 -55.534  0.00  0.00    +0.000 C 
ATOM     16  N   UNL     1      45.067 -34.968 -54.564  0.00  0.00    -0.297 N 
ATOM     17  C   UNL     1      45.673 -34.191 -53.456  0.00  0.00    +0.024 C 
ATOM     18  H   UNL     1      45.816 -35.423 -55.087  0.00  0.00    +0.000 HD
ENDROOT
BRANCH   1  20
ATOM     19  C   UNL     1      47.250 -28.079 -54.794  0.00  0.00    +0.079 C 
ATOM     20  O   UNL     1      48.114 -29.205 -54.830  0.00  0.00    -0.491 OA
ENDBRANCH   1  20
BRANCH  10  21
ATOM     21  O   UNL     1      48.173 -34.502 -59.441  0.00  0.00    -0.388 OA
ATOM     22  H   UNL     1      47.506 -35.176 -59.239  0.00  0.00    +0.000 HD
ENDBRANCH  10  21
BRANCH  16  23
ATOM     23  C   UNL     1      44.194 -36.026 -54.023  0.00  0.00    +0.012 C 
BRANCH  23  24
ATOM     24  C   UNL     1      43.647 -36.945 -55.124  0.00  0.00    +0.048 C 
BRANCH  24  25
ATOM     25  C   UNL     1      42.179 -36.950 -55.097  0.00  0.00    +0.064 C 
ATOM     26  N   UNL     1      41.019 -36.964 -55.079  0.00  0.00    -0.197 NA
ENDBRANCH  24  25
ENDBRANCH  23  24
ENDBRANCH  16  23
TORSDOF 5
ENDMDL
MODEL 19
REMARK VINA RESULT:    -5.677      3.126      6.079
REMARK INTER + INTRA:          -7.524
REMARK INTER:                  -7.175
REMARK INTRA:                  -0.349
REMARK UNBOUND:                -0.354
REMARK  Name = cpd320.pdb
REMARK  6 active torsions:
REMARK  status: ('A' for Active; 'I' for Inactive)
REMARK    1  A    between atoms: C_1  and  O_2
REMARK    2  A    between atoms: O_2  and  C_3
REMARK    3  A    between atoms: C_12  and  O_13
REMARK    4  A    between atoms: N_19  and  C_20
REMARK    5  A    between atoms: C_20  and  C_21
REMARK    6  A    between atoms: C_21  and  C_22
REMARK                            x       y       z     vdW  Elec       q    Type
REMARK                         _______ _______ _______ _____ _____    ______ ____
ROOT
ATOM      1  C   UNL     1      33.088 -32.970 -30.015  0.00  0.00    +0.162 A 
ATOM      2  C   UNL     1      34.211 -32.245 -30.412  0.00  0.00    -0.016 A 
ATOM      3  C   UNL     1      35.411 -32.905 -30.726  0.00  0.00    -0.053 A 
ATOM      4  C   UNL     1      35.519 -34.308 -30.677  0.00  0.00    -0.026 A 
ATOM      5  C   UNL     1      34.358 -35.022 -30.385  0.00  0.00    +0.016 A 
ATOM      6  C   UNL     1      33.199 -34.355 -30.002  0.00  0.00    +0.167 A 
ATOM      7  O   UNL     1      32.211 -35.185 -29.531  0.00  0.00    -0.484 OA
ATOM      8  C   UNL     1      32.649 -36.529 -29.858  0.00  0.00    +0.116 C 
ATOM      9  C   UNL     1      31.677 -37.022 -30.940  0.00  0.00    +0.015 C 
ATOM     10  C   UNL     1      32.159 -38.292 -31.614  0.00  0.00    +0.077 C 
ATOM     11  C   UNL     1      33.552 -38.122 -32.110  0.00  0.00    -0.059 C 
ATOM     12  C   UNL     1      34.430 -37.280 -31.542  0.00  0.00    -0.071 C 
ATOM     13  C   UNL     1      34.166 -36.501 -30.258  0.00  0.00    +0.056 C 
ATOM     14  C   UNL     1      35.051 -37.029 -29.099  0.00  0.00    -0.023 C 
ATOM     15  C   UNL     1      36.514 -36.534 -29.061  0.00  0.00    +0.000 C 
ATOM     16  N   UNL     1      37.077 -36.325 -30.401  0.00  0.00    -0.297 N 
ATOM     17  C   UNL     1      36.885 -34.933 -30.876  0.00  0.00    +0.024 C 
ATOM     18  H   UNL     1      36.556 -36.951 -31.015  0.00  0.00    +0.000 HD
ENDROOT
BRANCH   1  20
ATOM     19  C   UNL     1      31.430 -31.296 -30.329  0.00  0.00    +0.079 C 
ATOM     20  O   UNL     1      31.888 -32.445 -29.631  0.00  0.00    -0.491 OA
ENDBRANCH   1  20
BRANCH  10  21
ATOM     21  O   UNL     1      32.157 -39.381 -30.704  0.00  0.00    -0.388 OA
ATOM     22  H   UNL     1      32.352 -40.202 -31.182  0.00  0.00    +0.000 HD
ENDBRANCH  10  21
BRANCH  16  23
ATOM     23  C   UNL     1      38.501 -36.697 -30.486  0.00  0.00    +0.012 C 
BRANCH  23  24
ATOM     24  C   UNL     1      39.267 -35.830 -31.495  0.00  0.00    +0.048 C 
BRANCH  24  25
ATOM     25  C   UNL     1      40.696 -35.801 -31.156  0.00  0.00    +0.064 C 
ATOM     26  N   UNL     1      41.827 -35.779 -30.899  0.00  0.00    -0.197 NA
ENDBRANCH  24  25
ENDBRANCH  23  24
ENDBRANCH  16  23
TORSDOF 5
ENDMDL
MODEL 20
REMARK VINA RESULT:    -5.619     17.985     20.376
REMARK INTER + INTRA:          -7.452
REMARK INTER:                  -7.039
REMARK INTRA:                  -0.413
REMARK UNBOUND:                -0.354
REMARK  Name = cpd320.pdb
REMARK  6 active torsions:
REMARK  status: ('A' for Active; 'I' for Inactive)
REMARK    1  A    between atoms: C_1  and  O_2
REMARK    2  A    between atoms: O_2  and  C_3
REMARK    3  A    between atoms: C_12  and  O_13
REMARK    4  A    between atoms: N_19  and  C_20
REMARK    5  A    between atoms: C_20  and  C_21
REMARK    6  A    between atoms: C_21  and  C_22
REMARK                            x       y       z     vdW  Elec       q    Type
REMARK                         _______ _______ _______ _____ _____    ______ ____
ROOT
ATOM      1  C   UNL     1      45.972 -16.400 -39.612  0.00  0.00    +0.162 A 
ATOM      2  C   UNL     1      44.759 -16.215 -40.272  0.00  0.00    -0.016 A 
ATOM      3  C   UNL     1      43.764 -17.207 -40.228  0.00  0.00    -0.053 A 
ATOM      4  C   UNL     1      43.943 -18.401 -39.504  0.00  0.00    -0.026 A 
ATOM      5  C   UNL     1      45.115 -18.521 -38.760  0.00  0.00    +0.016 A 
ATOM      6  C   UNL     1      46.122 -17.569 -38.875  0.00  0.00    +0.167 A 
ATOM      7  O   UNL     1      47.299 -17.929 -38.265  0.00  0.00    -0.484 OA
ATOM      8  C   UNL     1      46.978 -19.099 -37.470  0.00  0.00    +0.116 C 
ATOM      9  C   UNL     1      47.092 -18.642 -36.008  0.00  0.00    +0.015 C 
ATOM     10  C   UNL     1      46.503 -19.650 -35.040  0.00  0.00    +0.077 C 
ATOM     11  C   UNL     1      45.114 -20.005 -35.439  0.00  0.00    -0.059 C 
ATOM     12  C   UNL     1      44.684 -19.953 -36.709  0.00  0.00    -0.071 C 
ATOM     13  C   UNL     1      45.580 -19.661 -37.908  0.00  0.00    +0.056 C 
ATOM     14  C   UNL     1      45.746 -20.922 -38.795  0.00  0.00    -0.023 C 
ATOM     15  C   UNL     1      44.594 -21.239 -39.774  0.00  0.00    +0.000 C 
ATOM     16  N   UNL     1      43.278 -20.864 -39.243  0.00  0.00    -0.297 N 
ATOM     17  C   UNL     1      42.892 -19.486 -39.633  0.00  0.00    +0.024 C 
ATOM     18  H   UNL     1      43.375 -20.896 -38.228  0.00  0.00    +0.000 HD
ENDROOT
BRANCH   1  20
ATOM     19  C   UNL     1      47.238 -14.783 -40.809  0.00  0.00    +0.079 C 
ATOM     20  O   UNL     1      47.033 -15.542 -39.626  0.00  0.00    -0.491 OA
ENDBRANCH   1  20
BRANCH  10  21
ATOM     21  O   UNL     1      47.265 -20.848 -35.030  0.00  0.00    -0.388 OA
ATOM     22  H   UNL     1      48.011 -20.761 -35.643  0.00  0.00    +0.000 HD
ENDBRANCH  10  21
BRANCH  16  23
ATOM     23  C   UNL     1      42.217 -21.814 -39.621  0.00  0.00    +0.012 C 
BRANCH  23  24
ATOM     24  C   UNL     1      40.950 -21.634 -38.774  0.00  0.00    +0.048 C 
BRANCH  24  25
ATOM     25  C   UNL     1      41.079 -22.365 -37.507  0.00  0.00    +0.064 C 
ATOM     26  N   UNL     1      41.191 -22.941 -36.506  0.00  0.00    -0.197 NA
ENDBRANCH  24  25
ENDBRANCH  23  24
ENDBRANCH  16  23
TORSDOF 5
ENDMDL
