REMARK  Name = cpd210.pdb
REMARK  4 active torsions:
REMARK  status: ('A' for Active; 'I' for Inactive)
REMARK    1  A    between atoms: C_1  and  N_2
REMARK    2  A    between atoms: N_2  and  C_3
REMARK    3  A    between atoms: C_7  and  O_8
REMARK    4  A    between atoms: C_7  and  C_9
REMARK                            x       y       z     vdW  Elec       q    Type
REMARK                         _______ _______ _______ _____ _____    ______ ____
ROOT
ATOM      1  C   UNL     1       2.221  -0.223   1.467  0.00  0.00    -0.100 C 
ATOM      2  N   UNL     1       1.473  -0.508   0.174  0.00  0.00    +0.381 N 
ATOM      3  C   UNL     1       2.094   0.321  -0.946  0.00  0.00    -0.100 C 
ATOM      4  C   UNL     1       1.577  -2.010  -0.198  0.00  0.00    -0.064 C 
ATOM      5  C   UNL     1       0.409  -2.792   0.413  0.00  0.00    +0.037 C 
ATOM      6  O   UNL     1      -0.872  -2.416  -0.100  0.00  0.00    -0.348 OA
ATOM      7  C   UNL     1      -1.002  -1.041  -0.474  0.00  0.00    +0.179 C 
ATOM      8  C   UNL     1      -0.042  -0.115   0.352  0.00  0.00    -0.029 C 
ENDROOT
BRANCH   7   9
ATOM      9  C   UNL     1      -2.444  -0.585  -0.277  0.00  0.00    +0.009 A 
ATOM     10  C   UNL     1      -3.331  -1.288   0.558  0.00  0.00    -0.052 A 
ATOM     11  C   UNL     1      -4.643  -0.844   0.749  0.00  0.00    -0.043 A 
ATOM     12  C   UNL     1      -5.086   0.311   0.111  0.00  0.00    +0.041 A 
ATOM     13 CL   UNL     1      -6.697   0.858   0.349  0.00  0.00    -0.084 Cl
ATOM     14  C   UNL     1      -4.227   1.025  -0.719  0.00  0.00    -0.043 A 
ATOM     15  C   UNL     1      -2.915   0.582  -0.912  0.00  0.00    -0.052 A 
ENDBRANCH   7   9
BRANCH   7  16
ATOM     16  O   UNL     1      -0.668  -0.964  -1.857  0.00  0.00    -0.362 OA
ATOM     17  H   UNL     1      -1.263  -1.537  -2.366  0.00  0.00    +0.000 HD
ENDBRANCH   7  16
TORSDOF 2
