MODEL 1
REMARK VINA RESULT:    -6.196      0.000      0.000
REMARK INTER + INTRA:          -6.927
REMARK INTER:                  -6.740
REMARK INTRA:                  -0.188
REMARK UNBOUND:                -0.188
REMARK  Name = cpd210.pdb
REMARK  4 active torsions:
REMARK  status: ('A' for Active; 'I' for Inactive)
REMARK    1  A    between atoms: C_1  and  N_2
REMARK    2  A    between atoms: N_2  and  C_3
REMARK    3  A    between atoms: C_7  and  O_8
REMARK    4  A    between atoms: C_7  and  C_9
REMARK                            x       y       z     vdW  Elec       q    Type
REMARK                         _______ _______ _______ _____ _____    ______ ____
ROOT
ATOM      1  C   UNL     1      33.560 -36.732 -28.580  0.00  0.00    -0.100 C 
ATOM      2  N   UNL     1      33.991 -36.478 -30.016  0.00  0.00    +0.381 N 
ATOM      3  C   UNL     1      33.429 -37.585 -30.902  0.00  0.00    -0.100 C 
ATOM      4  C   UNL     1      33.451 -35.113 -30.517  0.00  0.00    -0.064 C 
ATOM      5  C   UNL     1      34.465 -34.001 -30.229  0.00  0.00    +0.037 C 
ATOM      6  O   UNL     1      35.699 -34.143 -30.937  0.00  0.00    -0.348 OA
ATOM      7  C   UNL     1      36.111 -35.491 -31.183  0.00  0.00    +0.179 C 
ATOM      8  C   UNL     1      35.565 -36.480 -30.094  0.00  0.00    -0.029 C 
ENDROOT
BRANCH   7   9
ATOM      9  C   UNL     1      37.634 -35.568 -31.222  0.00  0.00    +0.009 A 
ATOM     10  C   UNL     1      38.412 -34.509 -31.725  0.00  0.00    -0.052 A 
ATOM     11  C   UNL     1      39.808 -34.583 -31.731  0.00  0.00    -0.043 A 
ATOM     12  C   UNL     1      40.447 -35.714 -31.231  0.00  0.00    +0.041 A 
ATOM     13 CL   UNL     1      42.163 -35.802 -31.235  0.00  0.00    -0.084 Cl
ATOM     14  C   UNL     1      39.700 -36.774 -30.727  0.00  0.00    -0.043 A 
ATOM     15  C   UNL     1      38.303 -36.702 -30.721  0.00  0.00    -0.052 A 
ENDBRANCH   7   9
BRANCH   7  16
ATOM     16  O   UNL     1      35.589 -35.848 -32.459  0.00  0.00    -0.362 OA
ATOM     17  H   UNL     1      34.706 -35.461 -32.568  0.00  0.00    +0.000 HD
ENDBRANCH   7  16
TORSDOF 2
ENDMDL
MODEL 2
REMARK VINA RESULT:    -6.160      1.951      2.610
REMARK INTER + INTRA:          -6.887
REMARK INTER:                  -6.697
REMARK INTRA:                  -0.190
REMARK UNBOUND:                -0.188
REMARK  Name = cpd210.pdb
REMARK  4 active torsions:
REMARK  status: ('A' for Active; 'I' for Inactive)
REMARK    1  A    between atoms: C_1  and  N_2
REMARK    2  A    between atoms: N_2  and  C_3
REMARK    3  A    between atoms: C_7  and  O_8
REMARK    4  A    between atoms: C_7  and  C_9
REMARK                            x       y       z     vdW  Elec       q    Type
REMARK                         _______ _______ _______ _____ _____    ______ ____
ROOT
ATOM      1  C   UNL     1      34.665 -39.797 -30.326  0.00  0.00    -0.100 C 
ATOM      2  N   UNL     1      35.047 -38.329 -30.223  0.00  0.00    +0.381 N 
ATOM      3  C   UNL     1      34.202 -37.531 -31.210  0.00  0.00    -0.100 C 
ATOM      4  C   UNL     1      34.784 -37.794 -28.791  0.00  0.00    -0.064 C 
ATOM      5  C   UNL     1      36.031 -37.972 -27.918  0.00  0.00    +0.037 C 
ATOM      6  O   UNL     1      37.156 -37.203 -28.352  0.00  0.00    -0.348 OA
ATOM      7  C   UNL     1      37.251 -37.000 -29.765  0.00  0.00    +0.179 C 
ATOM      8  C   UNL     1      36.575 -38.164 -30.572  0.00  0.00    -0.029 C 
ENDROOT
BRANCH   7   9
ATOM      9  C   UNL     1      38.715 -36.881 -30.175  0.00  0.00    +0.009 A 
ATOM     10  C   UNL     1      39.127 -35.996 -31.187  0.00  0.00    -0.052 A 
ATOM     11  C   UNL     1      40.476 -35.878 -31.535  0.00  0.00    -0.043 A 
ATOM     12  C   UNL     1      41.434 -36.641 -30.872  0.00  0.00    +0.041 A 
ATOM     13 CL   UNL     1      43.092 -36.493 -31.297  0.00  0.00    -0.084 Cl
ATOM     14  C   UNL     1      41.052 -37.523 -29.866  0.00  0.00    -0.043 A 
ATOM     15  C   UNL     1      39.703 -37.642 -29.518  0.00  0.00    -0.052 A 
ENDBRANCH   7   9
BRANCH   7  16
ATOM     16  O   UNL     1      36.582 -35.774 -30.044  0.00  0.00    -0.362 OA
ATOM     17  H   UNL     1      35.847 -35.937 -30.656  0.00  0.00    +0.000 HD
ENDBRANCH   7  16
TORSDOF 2
ENDMDL
MODEL 3
REMARK VINA RESULT:    -6.105      1.325      2.279
REMARK INTER + INTRA:          -6.828
REMARK INTER:                  -6.650
REMARK INTRA:                  -0.178
REMARK UNBOUND:                -0.188
REMARK  Name = cpd210.pdb
REMARK  4 active torsions:
REMARK  status: ('A' for Active; 'I' for Inactive)
REMARK    1  A    between atoms: C_1  and  N_2
REMARK    2  A    between atoms: N_2  and  C_3
REMARK    3  A    between atoms: C_7  and  O_8
REMARK    4  A    between atoms: C_7  and  C_9
REMARK                            x       y       z     vdW  Elec       q    Type
REMARK                         _______ _______ _______ _____ _____    ______ ____
ROOT
ATOM      1  C   UNL     1      33.562 -33.955 -32.049  0.00  0.00    -0.100 C 
ATOM      2  N   UNL     1      34.240 -34.585 -30.841  0.00  0.00    +0.381 N 
ATOM      3  C   UNL     1      34.054 -33.664 -29.639  0.00  0.00    -0.100 C 
ATOM      4  C   UNL     1      33.609 -35.964 -30.518  0.00  0.00    -0.064 C 
ATOM      5  C   UNL     1      34.354 -37.078 -31.262  0.00  0.00    +0.037 C 
ATOM      6  O   UNL     1      35.716 -37.237 -30.855  0.00  0.00    -0.348 OA
ATOM      7  C   UNL     1      36.376 -36.036 -30.444  0.00  0.00    +0.179 C 
ATOM      8  C   UNL     1      35.775 -34.767 -31.143  0.00  0.00    -0.029 C 
ENDROOT
BRANCH   7   9
ATOM      9  C   UNL     1      37.866 -36.131 -30.755  0.00  0.00    +0.009 A 
ATOM     10  C   UNL     1      38.484 -35.262 -31.672  0.00  0.00    -0.052 A 
ATOM     11  C   UNL     1      39.856 -35.344 -31.929  0.00  0.00    -0.043 A 
ATOM     12  C   UNL     1      40.630 -36.295 -31.270  0.00  0.00    +0.041 A 
ATOM     13 CL   UNL     1      42.317 -36.394 -31.584  0.00  0.00    -0.084 Cl
ATOM     14  C   UNL     1      40.043 -37.166 -30.358  0.00  0.00    -0.043 A 
ATOM     15  C   UNL     1      38.671 -37.086 -30.100  0.00  0.00    -0.052 A 
ENDBRANCH   7   9
BRANCH   7  16
ATOM     16  O   UNL     1      36.195 -35.937 -29.034  0.00  0.00    -0.362 OA
ATOM     17  H   UNL     1      36.448 -36.774 -28.615  0.00  0.00    +0.000 HD
ENDBRANCH   7  16
TORSDOF 2
ENDMDL
MODEL 4
REMARK VINA RESULT:    -6.069      2.669      3.583
REMARK INTER + INTRA:          -6.789
REMARK INTER:                  -6.608
REMARK INTRA:                  -0.181
REMARK UNBOUND:                -0.188
REMARK  Name = cpd210.pdb
REMARK  4 active torsions:
REMARK  status: ('A' for Active; 'I' for Inactive)
REMARK    1  A    between atoms: C_1  and  N_2
REMARK    2  A    between atoms: N_2  and  C_3
REMARK    3  A    between atoms: C_7  and  O_8
REMARK    4  A    between atoms: C_7  and  C_9
REMARK                            x       y       z     vdW  Elec       q    Type
REMARK                         _______ _______ _______ _____ _____    ______ ____
ROOT
ATOM      1  C   UNL     1      33.435 -38.108 -29.828  0.00  0.00    -0.100 C 
ATOM      2  N   UNL     1      34.520 -38.094 -28.763  0.00  0.00    +0.381 N 
ATOM      3  C   UNL     1      34.096 -37.150 -27.642  0.00  0.00    -0.100 C 
ATOM      4  C   UNL     1      34.725 -39.513 -28.172  0.00  0.00    -0.064 C 
ATOM      5  C   UNL     1      35.795 -40.270 -28.965  0.00  0.00    +0.037 C 
ATOM      6  O   UNL     1      37.100 -39.690 -28.879  0.00  0.00    -0.348 OA
ATOM      7  C   UNL     1      37.128 -38.265 -28.749  0.00  0.00    +0.179 C 
ATOM      8  C   UNL     1      35.870 -37.591 -29.401  0.00  0.00    -0.029 C 
ENDROOT
BRANCH   7   9
ATOM      9  C   UNL     1      38.394 -37.711 -29.395  0.00  0.00    +0.009 A 
ATOM     10  C   UNL     1      38.338 -36.738 -30.408  0.00  0.00    -0.052 A 
ATOM     11  C   UNL     1      39.508 -36.220 -30.973  0.00  0.00    -0.043 A 
ATOM     12  C   UNL     1      40.750 -36.667 -30.531  0.00  0.00    +0.041 A 
ATOM     13 CL   UNL     1      42.187 -36.028 -31.223  0.00  0.00    -0.084 Cl
ATOM     14  C   UNL     1      40.831 -37.628 -29.528  0.00  0.00    -0.043 A 
ATOM     15  C   UNL     1      39.663 -38.147 -28.963  0.00  0.00    -0.052 A 
ENDBRANCH   7   9
BRANCH   7  16
ATOM     16  O   UNL     1      37.150 -37.986 -27.352  0.00  0.00    -0.362 OA
ATOM     17  H   UNL     1      38.051 -37.745 -27.085  0.00  0.00    +0.000 HD
ENDBRANCH   7  16
TORSDOF 2
ENDMDL
MODEL 5
REMARK VINA RESULT:    -5.903      1.091      1.642
REMARK INTER + INTRA:          -6.608
REMARK INTER:                  -6.429
REMARK INTRA:                  -0.178
REMARK UNBOUND:                -0.188
REMARK  Name = cpd210.pdb
REMARK  4 active torsions:
REMARK  status: ('A' for Active; 'I' for Inactive)
REMARK    1  A    between atoms: C_1  and  N_2
REMARK    2  A    between atoms: N_2  and  C_3
REMARK    3  A    between atoms: C_7  and  O_8
REMARK    4  A    between atoms: C_7  and  C_9
REMARK                            x       y       z     vdW  Elec       q    Type
REMARK                         _______ _______ _______ _____ _____    ______ ____
ROOT
ATOM      1  C   UNL     1      32.388 -36.043 -28.964  0.00  0.00    -0.100 C 
ATOM      2  N   UNL     1      33.104 -35.868 -30.294  0.00  0.00    +0.381 N 
ATOM      3  C   UNL     1      32.411 -36.732 -31.343  0.00  0.00    -0.100 C 
ATOM      4  C   UNL     1      33.052 -34.387 -30.752  0.00  0.00    -0.064 C 
ATOM      5  C   UNL     1      34.272 -33.624 -30.225  0.00  0.00    +0.037 C 
ATOM      6  O   UNL     1      35.518 -34.086 -30.753  0.00  0.00    -0.348 OA
ATOM      7  C   UNL     1      35.576 -35.485 -31.048  0.00  0.00    +0.179 C 
ATOM      8  C   UNL     1      34.606 -36.317 -30.140  0.00  0.00    -0.029 C 
ENDROOT
BRANCH   7   9
ATOM      9  C   UNL     1      37.003 -35.992 -30.869  0.00  0.00    +0.009 A 
ATOM     10  C   UNL     1      37.327 -36.947 -29.888  0.00  0.00    -0.052 A 
ATOM     11  C   UNL     1      38.635 -37.422 -29.752  0.00  0.00    -0.043 A 
ATOM     12  C   UNL     1      39.637 -36.952 -30.596  0.00  0.00    +0.041 A 
ATOM     13 CL   UNL     1      41.243 -37.539 -30.430  0.00  0.00    -0.084 Cl
ATOM     14  C   UNL     1      39.342 -36.008 -31.575  0.00  0.00    -0.043 A 
ATOM     15  C   UNL     1      38.035 -35.531 -31.712  0.00  0.00    -0.052 A 
ENDBRANCH   7   9
BRANCH   7  16
ATOM     16  O   UNL     1      35.194 -35.627 -32.414  0.00  0.00    -0.362 OA
ATOM     17  H   UNL     1      35.983 -35.592 -32.976  0.00  0.00    +0.000 HD
ENDBRANCH   7  16
TORSDOF 2
ENDMDL
MODEL 6
REMARK VINA RESULT:    -5.720      2.780      3.624
REMARK INTER + INTRA:          -6.409
REMARK INTER:                  -6.227
REMARK INTRA:                  -0.182
REMARK UNBOUND:                -0.188
REMARK  Name = cpd210.pdb
REMARK  4 active torsions:
REMARK  status: ('A' for Active; 'I' for Inactive)
REMARK    1  A    between atoms: C_1  and  N_2
REMARK    2  A    between atoms: N_2  and  C_3
REMARK    3  A    between atoms: C_7  and  O_8
REMARK    4  A    between atoms: C_7  and  C_9
REMARK                            x       y       z     vdW  Elec       q    Type
REMARK                         _______ _______ _______ _____ _____    ______ ____
ROOT
ATOM      1  C   UNL     1      34.358 -40.929 -27.399  0.00  0.00    -0.100 C 
ATOM      2  N   UNL     1      34.431 -39.598 -28.131  0.00  0.00    +0.381 N 
ATOM      3  C   UNL     1      33.522 -39.659 -29.355  0.00  0.00    -0.100 C 
ATOM      4  C   UNL     1      33.955 -38.442 -27.213  0.00  0.00    -0.064 C 
ATOM      5  C   UNL     1      35.141 -37.853 -26.441  0.00  0.00    +0.037 C 
ATOM      6  O   UNL     1      36.121 -37.226 -27.274  0.00  0.00    -0.348 OA
ATOM      7  C   UNL     1      36.282 -37.807 -28.572  0.00  0.00    +0.179 C 
ATOM      8  C   UNL     1      35.916 -39.332 -28.582  0.00  0.00    -0.029 C 
ENDROOT
BRANCH   7   9
ATOM      9  C   UNL     1      37.720 -37.624 -29.045  0.00  0.00    +0.009 A 
ATOM     10  C   UNL     1      38.798 -38.234 -28.378  0.00  0.00    -0.052 A 
ATOM     11  C   UNL     1      40.109 -38.079 -28.839  0.00  0.00    -0.043 A 
ATOM     12  C   UNL     1      40.361 -37.315 -29.974  0.00  0.00    +0.041 A 
ATOM     13 CL   UNL     1      41.972 -37.127 -30.542  0.00  0.00    -0.084 Cl
ATOM     14  C   UNL     1      39.312 -36.703 -30.653  0.00  0.00    -0.043 A 
ATOM     15  C   UNL     1      38.000 -36.856 -30.193  0.00  0.00    -0.052 A 
ENDBRANCH   7   9
BRANCH   7  16
ATOM     16  O   UNL     1      35.405 -37.099 -29.444  0.00  0.00    -0.362 OA
ATOM     17  H   UNL     1      34.518 -37.490 -29.398  0.00  0.00    +0.000 HD
ENDBRANCH   7  16
TORSDOF 2
ENDMDL
MODEL 7
REMARK VINA RESULT:    -5.630      3.672      4.579
REMARK INTER + INTRA:          -6.311
REMARK INTER:                  -6.123
REMARK INTRA:                  -0.187
REMARK UNBOUND:                -0.188
REMARK  Name = cpd210.pdb
REMARK  4 active torsions:
REMARK  status: ('A' for Active; 'I' for Inactive)
REMARK    1  A    between atoms: C_1  and  N_2
REMARK    2  A    between atoms: N_2  and  C_3
REMARK    3  A    between atoms: C_7  and  O_8
REMARK    4  A    between atoms: C_7  and  C_9
REMARK                            x       y       z     vdW  Elec       q    Type
REMARK                         _______ _______ _______ _____ _____    ______ ____
ROOT
ATOM      1  C   UNL     1      33.713 -41.394 -30.618  0.00  0.00    -0.100 C 
ATOM      2  N   UNL     1      34.156 -40.517 -29.457  0.00  0.00    +0.381 N 
ATOM      3  C   UNL     1      33.029 -39.547 -29.116  0.00  0.00    -0.100 C 
ATOM      4  C   UNL     1      34.467 -41.381 -28.207  0.00  0.00    -0.064 C 
ATOM      5  C   UNL     1      35.945 -41.789 -28.198  0.00  0.00    +0.037 C 
ATOM      6  O   UNL     1      36.850 -40.690 -28.069  0.00  0.00    -0.348 OA
ATOM      7  C   UNL     1      36.413 -39.464 -28.665  0.00  0.00    +0.179 C 
ATOM      8  C   UNL     1      35.444 -39.713 -29.874  0.00  0.00    -0.029 C 
ENDROOT
BRANCH   7   9
ATOM      9  C   UNL     1      37.619 -38.659 -29.136  0.00  0.00    +0.009 A 
ATOM     10  C   UNL     1      37.526 -37.752 -30.208  0.00  0.00    -0.052 A 
ATOM     11  C   UNL     1      38.634 -37.002 -30.612  0.00  0.00    -0.043 A 
ATOM     12  C   UNL     1      39.850 -37.143 -29.949  0.00  0.00    +0.041 A 
ATOM     13 CL   UNL     1      41.210 -36.218 -30.444  0.00  0.00    -0.084 Cl
ATOM     14  C   UNL     1      39.967 -38.033 -28.885  0.00  0.00    -0.043 A 
ATOM     15  C   UNL     1      38.860 -38.785 -28.480  0.00  0.00    -0.052 A 
ENDBRANCH   7   9
BRANCH   7  16
ATOM     16  O   UNL     1      35.730 -38.739 -27.646  0.00  0.00    -0.362 OA
ATOM     17  H   UNL     1      35.905 -37.791 -27.752  0.00  0.00    +0.000 HD
ENDBRANCH   7  16
TORSDOF 2
ENDMDL
MODEL 8
REMARK VINA RESULT:    -5.548     23.977     25.823
REMARK INTER + INTRA:          -6.222
REMARK INTER:                  -6.031
REMARK INTRA:                  -0.191
REMARK UNBOUND:                -0.188
REMARK  Name = cpd210.pdb
REMARK  4 active torsions:
REMARK  status: ('A' for Active; 'I' for Inactive)
REMARK    1  A    between atoms: C_1  and  N_2
REMARK    2  A    between atoms: N_2  and  C_3
REMARK    3  A    between atoms: C_7  and  O_8
REMARK    4  A    between atoms: C_7  and  C_9
REMARK                            x       y       z     vdW  Elec       q    Type
REMARK                         _______ _______ _______ _____ _____    ______ ____
ROOT
ATOM      1  C   UNL     1      47.249 -29.662 -56.115  0.00  0.00    -0.100 C 
ATOM      2  N   UNL     1      48.087 -30.517 -55.177  0.00  0.00    +0.381 N 
ATOM      3  C   UNL     1      49.460 -30.735 -55.806  0.00  0.00    -0.100 C 
ATOM      4  C   UNL     1      48.269 -29.810 -53.809  0.00  0.00    -0.064 C 
ATOM      5  C   UNL     1      47.146 -30.214 -52.847  0.00  0.00    +0.037 C 
ATOM      6  O   UNL     1      47.151 -31.602 -52.501  0.00  0.00    -0.348 OA
ATOM      7  C   UNL     1      47.619 -32.486 -53.524  0.00  0.00    +0.179 C 
ATOM      8  C   UNL     1      47.373 -31.904 -54.960  0.00  0.00    -0.029 C 
ENDROOT
BRANCH   7   9
ATOM      9  C   UNL     1      46.925 -33.838 -53.397  0.00  0.00    +0.009 A 
ATOM     10  C   UNL     1      46.106 -34.145 -52.295  0.00  0.00    -0.052 A 
ATOM     11  C   UNL     1      45.456 -35.379 -52.204  0.00  0.00    -0.043 A 
ATOM     12  C   UNL     1      45.612 -36.324 -53.215  0.00  0.00    +0.041 A 
ATOM     13 CL   UNL     1      44.810 -37.839 -53.104  0.00  0.00    -0.084 Cl
ATOM     14  C   UNL     1      46.416 -36.044 -54.315  0.00  0.00    -0.043 A 
ATOM     15  C   UNL     1      47.068 -34.810 -54.408  0.00  0.00    -0.052 A 
ENDBRANCH   7   9
BRANCH   7  16
ATOM     16  O   UNL     1      49.017 -32.652 -53.308  0.00  0.00    -0.362 OA
ATOM     17  H   UNL     1      49.195 -33.562 -53.023  0.00  0.00    +0.000 HD
ENDBRANCH   7  16
TORSDOF 2
ENDMDL
MODEL 9
REMARK VINA RESULT:    -5.541      2.070      2.867
REMARK INTER + INTRA:          -6.214
REMARK INTER:                  -6.029
REMARK INTRA:                  -0.185
REMARK UNBOUND:                -0.188
REMARK  Name = cpd210.pdb
REMARK  4 active torsions:
REMARK  status: ('A' for Active; 'I' for Inactive)
REMARK    1  A    between atoms: C_1  and  N_2
REMARK    2  A    between atoms: N_2  and  C_3
REMARK    3  A    between atoms: C_7  and  O_8
REMARK    4  A    between atoms: C_7  and  C_9
REMARK                            x       y       z     vdW  Elec       q    Type
REMARK                         _______ _______ _______ _____ _____    ______ ____
ROOT
ATOM      1  C   UNL     1      33.391 -36.174 -27.826  0.00  0.00    -0.100 C 
ATOM      2  N   UNL     1      34.479 -37.234 -27.896  0.00  0.00    +0.381 N 
ATOM      3  C   UNL     1      34.899 -37.601 -26.476  0.00  0.00    -0.100 C 
ATOM      4  C   UNL     1      33.956 -38.508 -28.609  0.00  0.00    -0.064 C 
ATOM      5  C   UNL     1      34.223 -38.423 -30.115  0.00  0.00    +0.037 C 
ATOM      6  O   UNL     1      35.612 -38.404 -30.458  0.00  0.00    -0.348 OA
ATOM      7  C   UNL     1      36.468 -37.766 -29.505  0.00  0.00    +0.179 C 
ATOM      8  C   UNL     1      35.714 -36.660 -28.687  0.00  0.00    -0.029 C 
ENDROOT
BRANCH   7   9
ATOM      9  C   UNL     1      37.664 -37.145 -30.219  0.00  0.00    +0.009 A 
ATOM     10  C   UNL     1      37.499 -36.235 -31.279  0.00  0.00    -0.052 A 
ATOM     11  C   UNL     1      38.605 -35.655 -31.907  0.00  0.00    -0.043 A 
ATOM     12  C   UNL     1      39.892 -35.972 -31.483  0.00  0.00    +0.041 A 
ATOM     13 CL   UNL     1      41.250 -35.256 -32.253  0.00  0.00    -0.084 Cl
ATOM     14  C   UNL     1      40.082 -36.869 -30.435  0.00  0.00    -0.043 A 
ATOM     15  C   UNL     1      38.977 -37.451 -29.806  0.00  0.00    -0.052 A 
ENDBRANCH   7   9
BRANCH   7  16
ATOM     16  O   UNL     1      36.923 -38.787 -28.622  0.00  0.00    -0.362 OA
ATOM     17  H   UNL     1      36.864 -39.648 -29.065  0.00  0.00    +0.000 HD
ENDBRANCH   7  16
TORSDOF 2
ENDMDL
MODEL 10
REMARK VINA RESULT:    -5.540     24.327     25.650
REMARK INTER + INTRA:          -6.213
REMARK INTER:                  -6.026
REMARK INTRA:                  -0.187
REMARK UNBOUND:                -0.188
REMARK  Name = cpd210.pdb
REMARK  4 active torsions:
REMARK  status: ('A' for Active; 'I' for Inactive)
REMARK    1  A    between atoms: C_1  and  N_2
REMARK    2  A    between atoms: N_2  and  C_3
REMARK    3  A    between atoms: C_7  and  O_8
REMARK    4  A    between atoms: C_7  and  C_9
REMARK                            x       y       z     vdW  Elec       q    Type
REMARK                         _______ _______ _______ _____ _____    ______ ____
ROOT
ATOM      1  C   UNL     1      46.144 -36.640 -55.495  0.00  0.00    -0.100 C 
ATOM      2  N   UNL     1      46.362 -35.982 -54.142  0.00  0.00    +0.381 N 
ATOM      3  C   UNL     1      45.188 -36.330 -53.231  0.00  0.00    -0.100 C 
ATOM      4  C   UNL     1      47.671 -36.495 -53.489  0.00  0.00    -0.064 C 
ATOM      5  C   UNL     1      48.851 -35.601 -53.887  0.00  0.00    +0.037 C 
ATOM      6  O   UNL     1      48.750 -34.259 -53.404  0.00  0.00    -0.348 OA
ATOM      7  C   UNL     1      47.418 -33.744 -53.300  0.00  0.00    +0.179 C 
ATOM      8  C   UNL     1      46.446 -34.420 -54.330  0.00  0.00    -0.029 C 
ENDROOT
BRANCH   7   9
ATOM      9  C   UNL     1      47.427 -32.235 -53.523  0.00  0.00    +0.009 A 
ATOM     10  C   UNL     1      46.934 -31.345 -52.552  0.00  0.00    -0.052 A 
ATOM     11  C   UNL     1      46.971 -29.963 -52.759  0.00  0.00    -0.043 A 
ATOM     12  C   UNL     1      47.507 -29.451 -53.937  0.00  0.00    +0.041 A 
ATOM     13 CL   UNL     1      47.556 -27.752 -54.189  0.00  0.00    -0.084 Cl
ATOM     14  C   UNL     1      48.003 -30.311 -54.912  0.00  0.00    -0.043 A 
ATOM     15  C   UNL     1      47.965 -31.693 -54.707  0.00  0.00    -0.052 A 
ENDBRANCH   7   9
BRANCH   7  16
ATOM     16  O   UNL     1      46.979 -34.023 -51.974  0.00  0.00    -0.362 OA
ATOM     17  H   UNL     1      46.694 -33.199 -51.548  0.00  0.00    +0.000 HD
ENDBRANCH   7  16
TORSDOF 2
ENDMDL
MODEL 11
REMARK VINA RESULT:    -5.539      2.741      4.079
REMARK INTER + INTRA:          -6.212
REMARK INTER:                  -6.021
REMARK INTRA:                  -0.191
REMARK UNBOUND:                -0.188
REMARK  Name = cpd210.pdb
REMARK  4 active torsions:
REMARK  status: ('A' for Active; 'I' for Inactive)
REMARK    1  A    between atoms: C_1  and  N_2
REMARK    2  A    between atoms: N_2  and  C_3
REMARK    3  A    between atoms: C_7  and  O_8
REMARK    4  A    between atoms: C_7  and  C_9
REMARK                            x       y       z     vdW  Elec       q    Type
REMARK                         _______ _______ _______ _____ _____    ______ ____
ROOT
ATOM      1  C   UNL     1      30.309 -33.385 -31.737  0.00  0.00    -0.100 C 
ATOM      2  N   UNL     1      31.352 -32.857 -30.764  0.00  0.00    +0.381 N 
ATOM      3  C   UNL     1      31.573 -31.373 -31.037  0.00  0.00    -0.100 C 
ATOM      4  C   UNL     1      30.872 -33.031 -29.300  0.00  0.00    -0.064 C 
ATOM      5  C   UNL     1      31.332 -34.384 -28.746  0.00  0.00    +0.037 C 
ATOM      6  O   UNL     1      32.752 -34.514 -28.641  0.00  0.00    -0.348 OA
ATOM      7  C   UNL     1      33.506 -33.814 -29.635  0.00  0.00    +0.179 C 
ATOM      8  C   UNL     1      32.701 -33.644 -30.971  0.00  0.00    -0.029 C 
ENDROOT
BRANCH   7   9
ATOM      9  C   UNL     1      34.809 -34.556 -29.916  0.00  0.00    +0.009 A 
ATOM     10  C   UNL     1      35.662 -34.173 -30.967  0.00  0.00    -0.052 A 
ATOM     11  C   UNL     1      36.866 -34.847 -31.197  0.00  0.00    -0.043 A 
ATOM     12  C   UNL     1      37.234 -35.911 -30.378  0.00  0.00    +0.041 A 
ATOM     13 CL   UNL     1      38.715 -36.736 -30.659  0.00  0.00    -0.084 Cl
ATOM     14  C   UNL     1      36.408 -36.308 -29.331  0.00  0.00    -0.043 A 
ATOM     15  C   UNL     1      35.203 -35.635 -29.100  0.00  0.00    -0.052 A 
ENDBRANCH   7   9
BRANCH   7  16
ATOM     16  O   UNL     1      33.803 -32.531 -29.090  0.00  0.00    -0.362 OA
ATOM     17  H   UNL     1      33.403 -31.843 -29.645  0.00  0.00    +0.000 HD
ENDBRANCH   7  16
TORSDOF 2
ENDMDL
MODEL 12
REMARK VINA RESULT:    -5.536     18.640     19.950
REMARK INTER + INTRA:          -6.209
REMARK INTER:                  -6.032
REMARK INTRA:                  -0.178
REMARK UNBOUND:                -0.188
REMARK  Name = cpd210.pdb
REMARK  4 active torsions:
REMARK  status: ('A' for Active; 'I' for Inactive)
REMARK    1  A    between atoms: C_1  and  N_2
REMARK    2  A    between atoms: N_2  and  C_3
REMARK    3  A    between atoms: C_7  and  O_8
REMARK    4  A    between atoms: C_7  and  C_9
REMARK                            x       y       z     vdW  Elec       q    Type
REMARK                         _______ _______ _______ _____ _____    ______ ____
ROOT
ATOM      1  C   UNL     1      45.361 -22.102 -42.543  0.00  0.00    -0.100 C 
ATOM      2  N   UNL     1      46.460 -21.856 -41.522  0.00  0.00    +0.381 N 
ATOM      3  C   UNL     1      47.357 -23.089 -41.459  0.00  0.00    -0.100 C 
ATOM      4  C   UNL     1      47.320 -20.632 -41.928  0.00  0.00    -0.064 C 
ATOM      5  C   UNL     1      46.744 -19.350 -41.316  0.00  0.00    +0.037 C 
ATOM      6  O   UNL     1      46.787 -19.320 -39.887  0.00  0.00    -0.348 OA
ATOM      7  C   UNL     1      46.645 -20.590 -39.243  0.00  0.00    +0.179 C 
ATOM      8  C   UNL     1      45.811 -21.597 -40.110  0.00  0.00    -0.029 C 
ENDROOT
BRANCH   7   9
ATOM      9  C   UNL     1      45.974 -20.410 -37.885  0.00  0.00    +0.009 A 
ATOM     10  C   UNL     1      44.575 -20.440 -37.745  0.00  0.00    -0.052 A 
ATOM     11  C   UNL     1      43.975 -20.299 -36.490  0.00  0.00    -0.043 A 
ATOM     12  C   UNL     1      44.765 -20.130 -35.357  0.00  0.00    +0.041 A 
ATOM     13 CL   UNL     1      44.028 -19.960 -33.815  0.00  0.00    -0.084 Cl
ATOM     14  C   UNL     1      46.152 -20.099 -35.469  0.00  0.00    -0.043 A 
ATOM     15  C   UNL     1      46.754 -20.239 -36.723  0.00  0.00    -0.052 A 
ENDBRANCH   7   9
BRANCH   7  16
ATOM     16  O   UNL     1      47.963 -21.099 -39.055  0.00  0.00    -0.362 OA
ATOM     17  H   UNL     1      47.924 -21.909 -38.523  0.00  0.00    +0.000 HD
ENDBRANCH   7  16
TORSDOF 2
ENDMDL
MODEL 13
REMARK VINA RESULT:    -5.416      2.437      3.395
REMARK INTER + INTRA:          -6.079
REMARK INTER:                  -5.898
REMARK INTRA:                  -0.181
REMARK UNBOUND:                -0.188
REMARK  Name = cpd210.pdb
REMARK  4 active torsions:
REMARK  status: ('A' for Active; 'I' for Inactive)
REMARK    1  A    between atoms: C_1  and  N_2
REMARK    2  A    between atoms: N_2  and  C_3
REMARK    3  A    between atoms: C_7  and  O_8
REMARK    4  A    between atoms: C_7  and  C_9
REMARK                            x       y       z     vdW  Elec       q    Type
REMARK                         _______ _______ _______ _____ _____    ______ ____
ROOT
ATOM      1  C   UNL     1      30.806 -33.304 -28.920  0.00  0.00    -0.100 C 
ATOM      2  N   UNL     1      31.711 -33.537 -30.120  0.00  0.00    +0.381 N 
ATOM      3  C   UNL     1      30.897 -34.197 -31.228  0.00  0.00    -0.100 C 
ATOM      4  C   UNL     1      32.277 -32.193 -30.647  0.00  0.00    -0.064 C 
ATOM      5  C   UNL     1      33.609 -31.870 -29.961  0.00  0.00    +0.037 C 
ATOM      6  O   UNL     1      34.653 -32.803 -30.255  0.00  0.00    -0.348 OA
ATOM      7  C   UNL     1      34.227 -34.151 -30.472  0.00  0.00    +0.179 C 
ATOM      8  C   UNL     1      32.901 -34.479 -29.699  0.00  0.00    -0.029 C 
ENDROOT
BRANCH   7   9
ATOM      9  C   UNL     1      35.323 -35.117 -30.036  0.00  0.00    +0.009 A 
ATOM     10  C   UNL     1      36.530 -35.233 -30.749  0.00  0.00    -0.052 A 
ATOM     11  C   UNL     1      37.536 -36.105 -30.323  0.00  0.00    -0.043 A 
ATOM     12  C   UNL     1      37.353 -36.871 -29.176  0.00  0.00    +0.041 A 
ATOM     13 CL   UNL     1      38.592 -37.939 -28.651  0.00  0.00    -0.084 Cl
ATOM     14  C   UNL     1      36.169 -36.773 -28.451  0.00  0.00    -0.043 A 
ATOM     15  C   UNL     1      35.161 -35.903 -28.876  0.00  0.00    -0.052 A 
ENDBRANCH   7   9
BRANCH   7  16
ATOM     16  O   UNL     1      34.009 -34.287 -31.873  0.00  0.00    -0.362 OA
ATOM     17  H   UNL     1      34.698 -34.854 -32.254  0.00  0.00    +0.000 HD
ENDBRANCH   7  16
TORSDOF 2
ENDMDL
MODEL 14
REMARK VINA RESULT:    -5.089     23.976     25.407
REMARK INTER + INTRA:          -5.723
REMARK INTER:                  -5.532
REMARK INTRA:                  -0.191
REMARK UNBOUND:                -0.188
REMARK  Name = cpd210.pdb
REMARK  4 active torsions:
REMARK  status: ('A' for Active; 'I' for Inactive)
REMARK    1  A    between atoms: C_1  and  N_2
REMARK    2  A    between atoms: N_2  and  C_3
REMARK    3  A    between atoms: C_7  and  O_8
REMARK    4  A    between atoms: C_7  and  C_9
REMARK                            x       y       z     vdW  Elec       q    Type
REMARK                         _______ _______ _______ _____ _____    ______ ____
ROOT
ATOM      1  C   UNL     1      46.680 -38.949 -55.271  0.00  0.00    -0.100 C 
ATOM      2  N   UNL     1      45.540 -37.954 -55.118  0.00  0.00    +0.381 N 
ATOM      3  C   UNL     1      44.616 -38.075 -56.326  0.00  0.00    -0.100 C 
ATOM      4  C   UNL     1      44.725 -38.250 -53.832  0.00  0.00    -0.064 C 
ATOM      5  C   UNL     1      45.299 -37.467 -52.646  0.00  0.00    +0.037 C 
ATOM      6  O   UNL     1      45.192 -36.047 -52.781  0.00  0.00    -0.348 OA
ATOM      7  C   UNL     1      45.279 -35.552 -54.121  0.00  0.00    +0.179 C 
ATOM      8  C   UNL     1      46.130 -36.495 -55.041  0.00  0.00    -0.029 C 
ENDROOT
BRANCH   7   9
ATOM      9  C   UNL     1      45.891 -34.155 -54.118  0.00  0.00    +0.009 A 
ATOM     10  C   UNL     1      46.190 -33.480 -55.315  0.00  0.00    -0.052 A 
ATOM     11  C   UNL     1      46.728 -32.189 -55.297  0.00  0.00    -0.043 A 
ATOM     12  C   UNL     1      46.970 -31.553 -54.083  0.00  0.00    +0.041 A 
ATOM     13 CL   UNL     1      47.626 -29.966 -54.061  0.00  0.00    -0.084 Cl
ATOM     14  C   UNL     1      46.680 -32.200 -52.885  0.00  0.00    -0.043 A 
ATOM     15  C   UNL     1      46.143 -33.491 -52.901  0.00  0.00    -0.052 A 
ENDBRANCH   7   9
BRANCH   7  16
ATOM     16  O   UNL     1      43.944 -35.481 -54.614  0.00  0.00    -0.362 OA
ATOM     17  H   UNL     1      43.865 -34.734 -55.228  0.00  0.00    +0.000 HD
ENDBRANCH   7  16
TORSDOF 2
ENDMDL
MODEL 15
REMARK VINA RESULT:    -5.084     24.932     27.280
REMARK INTER + INTRA:          -5.717
REMARK INTER:                  -5.526
REMARK INTRA:                  -0.191
REMARK UNBOUND:                -0.188
REMARK  Name = cpd210.pdb
REMARK  4 active torsions:
REMARK  status: ('A' for Active; 'I' for Inactive)
REMARK    1  A    between atoms: C_1  and  N_2
REMARK    2  A    between atoms: N_2  and  C_3
REMARK    3  A    between atoms: C_7  and  O_8
REMARK    4  A    between atoms: C_7  and  C_9
REMARK                            x       y       z     vdW  Elec       q    Type
REMARK                         _______ _______ _______ _____ _____    ______ ____
ROOT
ATOM      1  C   UNL     1      54.833 -37.532 -53.438  0.00  0.00    -0.100 C 
ATOM      2  N   UNL     1      55.862 -37.833 -52.360  0.00  0.00    +0.381 N 
ATOM      3  C   UNL     1      56.046 -39.344 -52.264  0.00  0.00    -0.100 C 
ATOM      4  C   UNL     1      57.226 -37.183 -52.709  0.00  0.00    -0.064 C 
ATOM      5  C   UNL     1      57.313 -35.774 -52.115  0.00  0.00    +0.037 C 
ATOM      6  O   UNL     1      57.294 -35.745 -50.685  0.00  0.00    -0.348 OA
ATOM      7  C   UNL     1      56.524 -36.778 -50.062  0.00  0.00    +0.179 C 
ATOM      8  C   UNL     1      55.350 -37.269 -50.981  0.00  0.00    -0.029 C 
ENDROOT
BRANCH   7   9
ATOM      9  C   UNL     1      55.957 -36.274 -48.738  0.00  0.00    +0.009 A 
ATOM     10  C   UNL     1      55.150 -37.090 -47.925  0.00  0.00    -0.052 A 
ATOM     11  C   UNL     1      54.659 -36.624 -46.702  0.00  0.00    -0.043 A 
ATOM     12  C   UNL     1      54.971 -35.337 -46.272  0.00  0.00    +0.041 A 
ATOM     13 CL   UNL     1      54.370 -34.766 -44.768  0.00  0.00    -0.084 Cl
ATOM     14  C   UNL     1      55.769 -34.512 -47.058  0.00  0.00    -0.043 A 
ATOM     15  C   UNL     1      56.260 -34.976 -48.282  0.00  0.00    -0.052 A 
ENDBRANCH   7   9
BRANCH   7  16
ATOM     16  O   UNL     1      57.419 -37.857 -49.812  0.00  0.00    -0.362 OA
ATOM     17  H   UNL     1      57.371 -38.494 -50.542  0.00  0.00    +0.000 HD
ENDBRANCH   7  16
TORSDOF 2
ENDMDL
MODEL 16
REMARK VINA RESULT:    -5.042     23.870     25.346
REMARK INTER + INTRA:          -5.672
REMARK INTER:                  -5.485
REMARK INTRA:                  -0.187
REMARK UNBOUND:                -0.188
REMARK  Name = cpd210.pdb
REMARK  4 active torsions:
REMARK  status: ('A' for Active; 'I' for Inactive)
REMARK    1  A    between atoms: C_1  and  N_2
REMARK    2  A    between atoms: N_2  and  C_3
REMARK    3  A    between atoms: C_7  and  O_8
REMARK    4  A    between atoms: C_7  and  C_9
REMARK                            x       y       z     vdW  Elec       q    Type
REMARK                         _______ _______ _______ _____ _____    ______ ____
ROOT
ATOM      1  C   UNL     1      53.016 -38.117 -52.339  0.00  0.00    -0.100 C 
ATOM      2  N   UNL     1      52.851 -38.364 -50.847  0.00  0.00    +0.381 N 
ATOM      3  C   UNL     1      51.365 -38.496 -50.532  0.00  0.00    -0.100 C 
ATOM      4  C   UNL     1      53.571 -39.672 -50.427  0.00  0.00    -0.064 C 
ATOM      5  C   UNL     1      55.017 -39.375 -50.013  0.00  0.00    +0.037 C 
ATOM      6  O   UNL     1      55.129 -38.551 -48.849  0.00  0.00    -0.348 OA
ATOM      7  C   UNL     1      54.085 -37.587 -48.678  0.00  0.00    +0.179 C 
ATOM      8  C   UNL     1      53.460 -37.150 -50.049  0.00  0.00    -0.029 C 
ENDROOT
BRANCH   7   9
ATOM      9  C   UNL     1      54.627 -36.361 -47.950  0.00  0.00    +0.009 A 
ATOM     10  C   UNL     1      54.072 -35.922 -46.735  0.00  0.00    -0.052 A 
ATOM     11  C   UNL     1      54.595 -34.811 -46.066  0.00  0.00    -0.043 A 
ATOM     12  C   UNL     1      55.682 -34.126 -46.601  0.00  0.00    +0.041 A 
ATOM     13 CL   UNL     1      56.326 -32.763 -45.777  0.00  0.00    -0.084 Cl
ATOM     14  C   UNL     1      56.250 -34.542 -47.801  0.00  0.00    -0.043 A 
ATOM     15  C   UNL     1      55.727 -35.652 -48.472  0.00  0.00    -0.052 A 
ENDBRANCH   7   9
BRANCH   7  16
ATOM     16  O   UNL     1      53.087 -38.210 -47.874  0.00  0.00    -0.362 OA
ATOM     17  H   UNL     1      53.488 -38.533 -47.052  0.00  0.00    +0.000 HD
ENDBRANCH   7  16
TORSDOF 2
ENDMDL
MODEL 17
REMARK VINA RESULT:    -4.815      2.305      3.213
REMARK INTER + INTRA:          -5.424
REMARK INTER:                  -5.233
REMARK INTRA:                  -0.191
REMARK UNBOUND:                -0.188
REMARK  Name = cpd210.pdb
REMARK  4 active torsions:
REMARK  status: ('A' for Active; 'I' for Inactive)
REMARK    1  A    between atoms: C_1  and  N_2
REMARK    2  A    between atoms: N_2  and  C_3
REMARK    3  A    between atoms: C_7  and  O_8
REMARK    4  A    between atoms: C_7  and  C_9
REMARK                            x       y       z     vdW  Elec       q    Type
REMARK                         _______ _______ _______ _____ _____    ______ ____
ROOT
ATOM      1  C   UNL     1      32.487 -39.634 -30.207  0.00  0.00    -0.100 C 
ATOM      2  N   UNL     1      33.069 -38.294 -29.782  0.00  0.00    +0.381 N 
ATOM      3  C   UNL     1      32.451 -37.196 -30.642  0.00  0.00    -0.100 C 
ATOM      4  C   UNL     1      32.746 -38.006 -28.293  0.00  0.00    -0.064 C 
ATOM      5  C   UNL     1      33.861 -38.547 -27.391  0.00  0.00    +0.037 C 
ATOM      6  O   UNL     1      35.124 -37.904 -27.583  0.00  0.00    -0.348 OA
ATOM      7  C   UNL     1      35.387 -37.455 -28.915  0.00  0.00    +0.179 C 
ATOM      8  C   UNL     1      34.630 -38.317 -29.985  0.00  0.00    -0.029 C 
ENDROOT
BRANCH   7   9
ATOM      9  C   UNL     1      36.886 -37.500 -29.191  0.00  0.00    +0.009 A 
ATOM     10  C   UNL     1      37.435 -36.957 -30.367  0.00  0.00    -0.052 A 
ATOM     11  C   UNL     1      38.814 -36.983 -30.595  0.00  0.00    -0.043 A 
ATOM     12  C   UNL     1      39.665 -37.550 -29.649  0.00  0.00    +0.041 A 
ATOM     13 CL   UNL     1      41.359 -37.578 -29.928  0.00  0.00    -0.084 Cl
ATOM     14  C   UNL     1      39.146 -38.092 -28.477  0.00  0.00    -0.043 A 
ATOM     15  C   UNL     1      37.767 -38.067 -28.248  0.00  0.00    -0.052 A 
ENDBRANCH   7   9
BRANCH   7  16
ATOM     16  O   UNL     1      34.935 -36.105 -28.984  0.00  0.00    -0.362 OA
ATOM     17  H   UNL     1      35.265 -35.694 -29.799  0.00  0.00    +0.000 HD
ENDBRANCH   7  16
TORSDOF 2
ENDMDL
MODEL 18
REMARK VINA RESULT:    -4.778     15.893     17.921
REMARK INTER + INTRA:          -5.384
REMARK INTER:                  -5.198
REMARK INTRA:                  -0.187
REMARK UNBOUND:                -0.188
REMARK  Name = cpd210.pdb
REMARK  4 active torsions:
REMARK  status: ('A' for Active; 'I' for Inactive)
REMARK    1  A    between atoms: C_1  and  N_2
REMARK    2  A    between atoms: N_2  and  C_3
REMARK    3  A    between atoms: C_7  and  O_8
REMARK    4  A    between atoms: C_7  and  C_9
REMARK                            x       y       z     vdW  Elec       q    Type
REMARK                         _______ _______ _______ _____ _____    ______ ____
ROOT
ATOM      1  C   UNL     1      44.545 -17.003 -36.133  0.00  0.00    -0.100 C 
ATOM      2  N   UNL     1      44.800 -18.269 -35.330  0.00  0.00    +0.381 N 
ATOM      3  C   UNL     1      45.892 -19.078 -36.023  0.00  0.00    -0.100 C 
ATOM      4  C   UNL     1      45.271 -17.919 -33.894  0.00  0.00    -0.064 C 
ATOM      5  C   UNL     1      44.067 -17.807 -32.952  0.00  0.00    +0.037 C 
ATOM      6  O   UNL     1      43.354 -19.034 -32.773  0.00  0.00    -0.348 OA
ATOM      7  C   UNL     1      43.342 -19.905 -33.908  0.00  0.00    +0.179 C 
ATOM      8  C   UNL     1      43.474 -19.115 -35.257  0.00  0.00    -0.029 C 
ENDROOT
BRANCH   7   9
ATOM      9  C   UNL     1      42.053 -20.722 -33.920  0.00  0.00    +0.009 A 
ATOM     10  C   UNL     1      41.457 -21.138 -35.123  0.00  0.00    -0.052 A 
ATOM     11  C   UNL     1      40.289 -21.908 -35.118  0.00  0.00    -0.043 A 
ATOM     12  C   UNL     1      39.703 -22.274 -33.910  0.00  0.00    +0.041 A 
ATOM     13 CL   UNL     1      38.271 -23.222 -33.905  0.00  0.00    -0.084 Cl
ATOM     14  C   UNL     1      40.275 -21.875 -32.706  0.00  0.00    -0.043 A 
ATOM     15  C   UNL     1      41.442 -21.105 -32.709  0.00  0.00    -0.052 A 
ENDBRANCH   7   9
BRANCH   7  16
ATOM     16  O   UNL     1      44.454 -20.783 -33.757  0.00  0.00    -0.362 OA
ATOM     17  H   UNL     1      45.163 -20.514 -34.362  0.00  0.00    +0.000 HD
ENDBRANCH   7  16
TORSDOF 2
ENDMDL
MODEL 19
REMARK VINA RESULT:    -4.766     19.564     20.631
REMARK INTER + INTRA:          -5.372
REMARK INTER:                  -5.182
REMARK INTRA:                  -0.190
REMARK UNBOUND:                -0.188
REMARK  Name = cpd210.pdb
REMARK  4 active torsions:
REMARK  status: ('A' for Active; 'I' for Inactive)
REMARK    1  A    between atoms: C_1  and  N_2
REMARK    2  A    between atoms: N_2  and  C_3
REMARK    3  A    between atoms: C_7  and  O_8
REMARK    4  A    between atoms: C_7  and  C_9
REMARK                            x       y       z     vdW  Elec       q    Type
REMARK                         _______ _______ _______ _____ _____    ______ ____
ROOT
ATOM      1  C   UNL     1      47.273 -23.099 -41.015  0.00  0.00    -0.100 C 
ATOM      2  N   UNL     1      47.061 -21.596 -41.101  0.00  0.00    +0.381 N 
ATOM      3  C   UNL     1      48.200 -20.984 -41.911  0.00  0.00    -0.100 C 
ATOM      4  C   UNL     1      45.717 -21.272 -41.802  0.00  0.00    -0.064 C 
ATOM      5  C   UNL     1      44.589 -21.168 -40.769  0.00  0.00    +0.037 C 
ATOM      6  O   UNL     1      44.745 -20.086 -39.847  0.00  0.00    -0.348 OA
ATOM      7  C   UNL     1      46.097 -19.752 -39.519  0.00  0.00    +0.179 C 
ATOM      8  C   UNL     1      47.055 -20.988 -39.647  0.00  0.00    -0.029 C 
ENDROOT
BRANCH   7   9
ATOM      9  C   UNL     1      46.165 -19.200 -38.099  0.00  0.00    +0.009 A 
ATOM     10  C   UNL     1      46.986 -18.106 -37.772  0.00  0.00    -0.052 A 
ATOM     11  C   UNL     1      47.019 -17.595 -36.471  0.00  0.00    -0.043 A 
ATOM     12  C   UNL     1      46.228 -18.168 -35.479  0.00  0.00    +0.041 A 
ATOM     13 CL   UNL     1      46.265 -17.537 -33.881  0.00  0.00    -0.084 Cl
ATOM     14  C   UNL     1      45.405 -19.250 -35.778  0.00  0.00    -0.043 A 
ATOM     15  C   UNL     1      45.372 -19.763 -37.078  0.00  0.00    -0.052 A 
ENDBRANCH   7   9
BRANCH   7  16
ATOM     16  O   UNL     1      46.498 -18.739 -40.438  0.00  0.00    -0.362 OA
ATOM     17  H   UNL     1      47.133 -18.144 -40.007  0.00  0.00    +0.000 HD
ENDBRANCH   7  16
TORSDOF 2
ENDMDL
MODEL 20
REMARK VINA RESULT:    -4.669     38.209     40.028
REMARK INTER + INTRA:          -5.266
REMARK INTER:                  -5.089
REMARK INTRA:                  -0.177
REMARK UNBOUND:                -0.188
REMARK  Name = cpd210.pdb
REMARK  4 active torsions:
REMARK  status: ('A' for Active; 'I' for Inactive)
REMARK    1  A    between atoms: C_1  and  N_2
REMARK    2  A    between atoms: N_2  and  C_3
REMARK    3  A    between atoms: C_7  and  O_8
REMARK    4  A    between atoms: C_7  and  C_9
REMARK                            x       y       z     vdW  Elec       q    Type
REMARK                         _______ _______ _______ _____ _____    ______ ____
ROOT
ATOM      1  C   UNL     1      66.318 -20.060  -3.402  0.00  0.00    -0.100 C 
ATOM      2  N   UNL     1      66.131 -21.567  -3.328  0.00  0.00    +0.381 N 
ATOM      3  C   UNL     1      67.503 -22.229  -3.236  0.00  0.00    -0.100 C 
ATOM      4  C   UNL     1      65.304 -21.954  -2.074  0.00  0.00    -0.064 C 
ATOM      5  C   UNL     1      63.810 -21.989  -2.412  0.00  0.00    +0.037 C 
ATOM      6  O   UNL     1      63.453 -22.996  -3.363  0.00  0.00    -0.348 OA
ATOM      7  C   UNL     1      64.453 -23.294  -4.343  0.00  0.00    +0.179 C 
ATOM      8  C   UNL     1      65.385 -22.063  -4.623  0.00  0.00    -0.029 C 
ENDROOT
BRANCH   7   9
ATOM      9  C   UNL     1      63.788 -23.736  -5.642  0.00  0.00    +0.009 A 
ATOM     10  C   UNL     1      63.630 -22.853  -6.726  0.00  0.00    -0.052 A 
ATOM     11  C   UNL     1      63.042 -23.280  -7.921  0.00  0.00    -0.043 A 
ATOM     12  C   UNL     1      62.606 -24.595  -8.050  0.00  0.00    +0.041 A 
ATOM     13 CL   UNL     1      61.886 -25.119  -9.520  0.00  0.00    -0.084 Cl
ATOM     14  C   UNL     1      62.752 -25.488  -6.993  0.00  0.00    -0.043 A 
ATOM     15  C   UNL     1      63.340 -25.063  -5.797  0.00  0.00    -0.052 A 
ENDBRANCH   7   9
BRANCH   7  16
ATOM     16  O   UNL     1      65.226 -24.370  -3.819  0.00  0.00    -0.362 OA
ATOM     17  H   UNL     1      64.715 -24.833  -3.136  0.00  0.00    +0.000 HD
ENDBRANCH   7  16
TORSDOF 2
ENDMDL
