MODEL 1
REMARK VINA RESULT:    -6.656      0.000      0.000
REMARK INTER + INTRA:          -9.097
REMARK INTER:                  -8.213
REMARK INTRA:                  -0.884
REMARK UNBOUND:                -0.884
REMARK  Name = cpd243.pdb
REMARK  7 active torsions:
REMARK  status: ('A' for Active; 'I' for Inactive)
REMARK    1  A    between atoms: C_1  and  C_2
REMARK    2  A    between atoms: C_2  and  N_3
REMARK    3  A    between atoms: N_3  and  C_4
REMARK    4  A    between atoms: N_3  and  C_6
REMARK    5  A    between atoms: C_4  and  C_5
REMARK    6  A    between atoms: C_6  and  C_7
REMARK    7  A    between atoms: C_6  and  C_8
REMARK                            x       y       z     vdW  Elec       q    Type
REMARK                         _______ _______ _______ _____ _____    ______ ____
ROOT
ATOM      1  C   UNL     1      34.354 -37.642 -28.914  0.00  0.00    +0.241 C 
ATOM      2  O   UNL     1      33.205 -37.201 -28.742  0.00  0.00    -0.273 OA
ATOM      3  N   UNL     1      35.459 -36.814 -29.193  0.00  0.00    -0.237 N 
ATOM      4  C   UNL     1      36.838 -37.211 -29.098  0.00  0.00    +0.055 A 
ATOM      5  C   UNL     1      37.280 -37.984 -28.014  0.00  0.00    -0.039 A 
ATOM      6  C   UNL     1      38.614 -38.389 -27.898  0.00  0.00    -0.060 A 
ATOM      7  C   UNL     1      39.541 -38.007 -28.859  0.00  0.00    -0.061 A 
ATOM      8  C   UNL     1      39.138 -37.200 -29.919  0.00  0.00    -0.046 A 
ATOM      9  C   UNL     1      37.803 -36.786 -30.030  0.00  0.00    +0.035 A 
ATOM     10  S   UNL     1      37.371 -35.724 -31.385  0.00  0.00    -0.086 S 
ATOM     11  C   UNL     1      36.070 -34.826 -30.569  0.00  0.00    +0.035 A 
ATOM     12  C   UNL     1      35.854 -33.495 -30.960  0.00  0.00    -0.046 A 
ATOM     13  C   UNL     1      34.831 -32.747 -30.384  0.00  0.00    -0.061 A 
ATOM     14  C   UNL     1      34.021 -33.327 -29.416  0.00  0.00    -0.060 A 
ATOM     15  C   UNL     1      34.230 -34.656 -29.030  0.00  0.00    -0.039 A 
ATOM     16  C   UNL     1      35.252 -35.437 -29.599  0.00  0.00    +0.055 A 
ENDROOT
BRANCH   1  17
ATOM     17  C   UNL     1      34.479 -39.202 -28.957  0.00  0.00    +0.085 C 
ATOM     18  C   UNL     1      34.018 -39.856 -27.647  0.00  0.00    -0.041 C 
BRANCH  17  19
ATOM     19  N   UNL     1      34.019 -39.797 -30.262  0.00  0.00    -0.292 N 
ATOM     20  H   UNL     1      33.514 -39.064 -30.760  0.00  0.00    +0.000 HD
BRANCH  19  22
ATOM     21  C   UNL     1      36.238 -40.933 -30.231  0.00  0.00    -0.052 C 
ATOM     22  C   UNL     1      35.181 -40.233 -31.080  0.00  0.00    -0.003 C 
ENDBRANCH  19  22
BRANCH  19  23
ATOM     23  C   UNL     1      33.087 -40.927 -30.063  0.00  0.00    -0.003 C 
ATOM     24  C   UNL     1      32.876 -41.720 -31.348  0.00  0.00    -0.052 C 
ENDBRANCH  19  23
ENDBRANCH  17  19
ENDBRANCH   1  17
TORSDOF 4
ENDMDL
MODEL 2
REMARK VINA RESULT:    -6.618     20.481     23.081
REMARK INTER + INTRA:          -9.050
REMARK INTER:                  -8.086
REMARK INTRA:                  -0.964
REMARK UNBOUND:                -0.884
REMARK  Name = cpd243.pdb
REMARK  7 active torsions:
REMARK  status: ('A' for Active; 'I' for Inactive)
REMARK    1  A    between atoms: C_1  and  C_2
REMARK    2  A    between atoms: C_2  and  N_3
REMARK    3  A    between atoms: N_3  and  C_4
REMARK    4  A    between atoms: N_3  and  C_6
REMARK    5  A    between atoms: C_4  and  C_5
REMARK    6  A    between atoms: C_6  and  C_7
REMARK    7  A    between atoms: C_6  and  C_8
REMARK                            x       y       z     vdW  Elec       q    Type
REMARK                         _______ _______ _______ _____ _____    ______ ____
ROOT
ATOM      1  C   UNL     1      46.037 -19.695 -38.983  0.00  0.00    +0.241 C 
ATOM      2  O   UNL     1      47.223 -19.648 -38.616  0.00  0.00    -0.273 OA
ATOM      3  N   UNL     1      45.518 -20.744 -39.765  0.00  0.00    -0.237 N 
ATOM      4  C   UNL     1      44.120 -21.020 -39.962  0.00  0.00    +0.055 A 
ATOM      5  C   UNL     1      43.225 -20.949 -38.884  0.00  0.00    -0.039 A 
ATOM      6  C   UNL     1      41.860 -21.207 -39.046  0.00  0.00    -0.060 A 
ATOM      7  C   UNL     1      41.364 -21.564 -40.293  0.00  0.00    -0.061 A 
ATOM      8  C   UNL     1      42.238 -21.688 -41.369  0.00  0.00    -0.046 A 
ATOM      9  C   UNL     1      43.609 -21.439 -41.204  0.00  0.00    +0.035 A 
ATOM     10  S   UNL     1      44.669 -21.658 -42.611  0.00  0.00    -0.086 S 
ATOM     11  C   UNL     1      46.127 -22.162 -41.725  0.00  0.00    +0.035 A 
ATOM     12  C   UNL     1      47.010 -23.043 -42.371  0.00  0.00    -0.046 A 
ATOM     13  C   UNL     1      48.185 -23.451 -41.745  0.00  0.00    -0.061 A 
ATOM     14  C   UNL     1      48.481 -22.979 -40.473  0.00  0.00    -0.060 A 
ATOM     15  C   UNL     1      47.607 -22.095 -39.830  0.00  0.00    -0.039 A 
ATOM     16  C   UNL     1      46.416 -21.662 -40.441  0.00  0.00    +0.055 A 
ENDROOT
BRANCH   1  17
ATOM     17  C   UNL     1      45.177 -18.429 -38.653  0.00  0.00    +0.085 C 
ATOM     18  C   UNL     1      45.118 -18.146 -37.145  0.00  0.00    -0.041 C 
BRANCH  17  19
ATOM     19  N   UNL     1      45.430 -17.280 -39.593  0.00  0.00    -0.292 N 
ATOM     20  H   UNL     1      46.165 -17.579 -40.235  0.00  0.00    +0.000 HD
BRANCH  19  22
ATOM     21  C   UNL     1      44.116 -17.775 -41.653  0.00  0.00    -0.052 C 
ATOM     22  C   UNL     1      44.205 -16.956 -40.369  0.00  0.00    -0.003 C 
ENDBRANCH  19  22
BRANCH  19  23
ATOM     23  C   UNL     1      45.916 -16.076 -38.888  0.00  0.00    -0.003 C 
ATOM     24  C   UNL     1      47.407 -15.848 -39.114  0.00  0.00    -0.052 C 
ENDBRANCH  19  23
ENDBRANCH  17  19
ENDBRANCH   1  17
TORSDOF 4
ENDMDL
MODEL 3
REMARK VINA RESULT:    -6.293      1.182      1.639
REMARK INTER + INTRA:          -8.648
REMARK INTER:                  -7.938
REMARK INTRA:                  -0.711
REMARK UNBOUND:                -0.884
REMARK  Name = cpd243.pdb
REMARK  7 active torsions:
REMARK  status: ('A' for Active; 'I' for Inactive)
REMARK    1  A    between atoms: C_1  and  C_2
REMARK    2  A    between atoms: C_2  and  N_3
REMARK    3  A    between atoms: N_3  and  C_4
REMARK    4  A    between atoms: N_3  and  C_6
REMARK    5  A    between atoms: C_4  and  C_5
REMARK    6  A    between atoms: C_6  and  C_7
REMARK    7  A    between atoms: C_6  and  C_8
REMARK                            x       y       z     vdW  Elec       q    Type
REMARK                         _______ _______ _______ _____ _____    ______ ____
ROOT
ATOM      1  C   UNL     1      33.710 -36.979 -28.953  0.00  0.00    +0.241 C 
ATOM      2  O   UNL     1      32.600 -36.438 -28.814  0.00  0.00    -0.273 OA
ATOM      3  N   UNL     1      34.883 -36.256 -29.245  0.00  0.00    -0.237 N 
ATOM      4  C   UNL     1      36.223 -36.763 -29.116  0.00  0.00    +0.055 A 
ATOM      5  C   UNL     1      36.587 -37.530 -27.999  0.00  0.00    -0.039 A 
ATOM      6  C   UNL     1      37.881 -38.040 -27.850  0.00  0.00    -0.060 A 
ATOM      7  C   UNL     1      38.848 -37.772 -28.810  0.00  0.00    -0.061 A 
ATOM      8  C   UNL     1      38.526 -36.973 -29.903  0.00  0.00    -0.046 A 
ATOM      9  C   UNL     1      37.231 -36.454 -30.047  0.00  0.00    +0.035 A 
ATOM     10  S   UNL     1      36.906 -35.409 -31.446  0.00  0.00    -0.086 S 
ATOM     11  C   UNL     1      35.675 -34.377 -30.681  0.00  0.00    +0.035 A 
ATOM     12  C   UNL     1      35.575 -33.048 -31.121  0.00  0.00    -0.046 A 
ATOM     13  C   UNL     1      34.611 -32.197 -30.587  0.00  0.00    -0.061 A 
ATOM     14  C   UNL     1      33.745 -32.673 -29.611  0.00  0.00    -0.060 A 
ATOM     15  C   UNL     1      33.838 -33.999 -29.176  0.00  0.00    -0.039 A 
ATOM     16  C   UNL     1      34.797 -34.882 -29.702  0.00  0.00    +0.055 A 
ENDROOT
BRANCH   1  17
ATOM     17  C   UNL     1      33.705 -38.545 -28.940  0.00  0.00    +0.085 C 
ATOM     18  C   UNL     1      32.848 -39.111 -27.798  0.00  0.00    -0.041 C 
BRANCH  17  19
ATOM     19  N   UNL     1      33.568 -39.148 -30.313  0.00  0.00    -0.292 N 
ATOM     20  H   UNL     1      33.116 -40.055 -30.194  0.00  0.00    +0.000 HD
BRANCH  19  22
ATOM     21  C   UNL     1      33.452 -37.887 -32.460  0.00  0.00    -0.052 C 
ATOM     22  C   UNL     1      32.722 -38.290 -31.182  0.00  0.00    -0.003 C 
ENDBRANCH  19  22
BRANCH  19  23
ATOM     23  C   UNL     1      34.879 -39.382 -30.954  0.00  0.00    -0.003 C 
ATOM     24  C   UNL     1      35.707 -40.412 -30.193  0.00  0.00    -0.052 C 
ENDBRANCH  19  23
ENDBRANCH  17  19
ENDBRANCH   1  17
TORSDOF 4
ENDMDL
MODEL 4
REMARK VINA RESULT:    -5.875     20.644     22.754
REMARK INTER + INTRA:          -8.133
REMARK INTER:                  -7.344
REMARK INTRA:                  -0.789
REMARK UNBOUND:                -0.884
REMARK  Name = cpd243.pdb
REMARK  7 active torsions:
REMARK  status: ('A' for Active; 'I' for Inactive)
REMARK    1  A    between atoms: C_1  and  C_2
REMARK    2  A    between atoms: C_2  and  N_3
REMARK    3  A    between atoms: N_3  and  C_4
REMARK    4  A    between atoms: N_3  and  C_6
REMARK    5  A    between atoms: C_4  and  C_5
REMARK    6  A    between atoms: C_6  and  C_7
REMARK    7  A    between atoms: C_6  and  C_8
REMARK                            x       y       z     vdW  Elec       q    Type
REMARK                         _______ _______ _______ _____ _____    ______ ____
ROOT
ATOM      1  C   UNL     1      46.414 -20.287 -39.442  0.00  0.00    +0.241 C 
ATOM      2  O   UNL     1      47.269 -20.939 -38.820  0.00  0.00    -0.273 OA
ATOM      3  N   UNL     1      45.409 -19.534 -38.803  0.00  0.00    -0.237 N 
ATOM      4  C   UNL     1      44.596 -18.530 -39.435  0.00  0.00    +0.055 A 
ATOM      5  C   UNL     1      45.169 -17.611 -40.326  0.00  0.00    -0.039 A 
ATOM      6  C   UNL     1      44.402 -16.627 -40.958  0.00  0.00    -0.060 A 
ATOM      7  C   UNL     1      43.042 -16.529 -40.693  0.00  0.00    -0.061 A 
ATOM      8  C   UNL     1      42.458 -17.398 -39.777  0.00  0.00    -0.046 A 
ATOM      9  C   UNL     1      43.230 -18.379 -39.135  0.00  0.00    +0.035 A 
ATOM     10  S   UNL     1      42.424 -19.424 -37.947  0.00  0.00    -0.086 S 
ATOM     11  C   UNL     1      43.825 -19.685 -36.882  0.00  0.00    +0.035 A 
ATOM     12  C   UNL     1      43.575 -19.888 -35.516  0.00  0.00    -0.046 A 
ATOM     13  C   UNL     1      44.625 -20.129 -34.633  0.00  0.00    -0.061 A 
ATOM     14  C   UNL     1      45.927 -20.168 -35.115  0.00  0.00    -0.060 A 
ATOM     15  C   UNL     1      46.178 -19.973 -36.477  0.00  0.00    -0.039 A 
ATOM     16  C   UNL     1      45.137 -19.734 -37.392  0.00  0.00    +0.055 A 
ENDROOT
BRANCH   1  17
ATOM     17  C   UNL     1      46.419 -20.475 -40.997  0.00  0.00    +0.085 C 
ATOM     18  C   UNL     1      47.778 -20.122 -41.618  0.00  0.00    -0.041 C 
BRANCH  17  19
ATOM     19  N   UNL     1      45.728 -21.737 -41.442  0.00  0.00    -0.292 N 
ATOM     20  H   UNL     1      44.967 -21.906 -40.784  0.00  0.00    +0.000 HD
BRANCH  19  22
ATOM     21  C   UNL     1      44.437 -20.245 -42.965  0.00  0.00    -0.052 C 
ATOM     22  C   UNL     1      45.166 -21.575 -42.809  0.00  0.00    -0.003 C 
ENDBRANCH  19  22
BRANCH  19  23
ATOM     23  C   UNL     1      46.625 -22.911 -41.399  0.00  0.00    -0.003 C 
ATOM     24  C   UNL     1      46.902 -23.465 -42.792  0.00  0.00    -0.052 C 
ENDBRANCH  19  23
ENDBRANCH  17  19
ENDBRANCH   1  17
TORSDOF 4
ENDMDL
MODEL 5
REMARK VINA RESULT:    -5.870     20.283     22.790
REMARK INTER + INTRA:          -8.127
REMARK INTER:                  -7.497
REMARK INTRA:                  -0.630
REMARK UNBOUND:                -0.884
REMARK  Name = cpd243.pdb
REMARK  7 active torsions:
REMARK  status: ('A' for Active; 'I' for Inactive)
REMARK    1  A    between atoms: C_1  and  C_2
REMARK    2  A    between atoms: C_2  and  N_3
REMARK    3  A    between atoms: N_3  and  C_4
REMARK    4  A    between atoms: N_3  and  C_6
REMARK    5  A    between atoms: C_4  and  C_5
REMARK    6  A    between atoms: C_6  and  C_7
REMARK    7  A    between atoms: C_6  and  C_8
REMARK                            x       y       z     vdW  Elec       q    Type
REMARK                         _______ _______ _______ _____ _____    ______ ____
ROOT
ATOM      1  C   UNL     1      45.709 -19.216 -40.699  0.00  0.00    +0.241 C 
ATOM      2  O   UNL     1      46.522 -18.452 -41.245  0.00  0.00    -0.273 OA
ATOM      3  N   UNL     1      45.272 -19.047 -39.370  0.00  0.00    -0.237 N 
ATOM      4  C   UNL     1      44.127 -19.692 -38.786  0.00  0.00    +0.055 A 
ATOM      5  C   UNL     1      42.929 -19.801 -39.508  0.00  0.00    -0.039 A 
ATOM      6  C   UNL     1      41.801 -20.426 -38.966  0.00  0.00    -0.060 A 
ATOM      7  C   UNL     1      41.843 -20.939 -37.677  0.00  0.00    -0.061 A 
ATOM      8  C   UNL     1      43.004 -20.802 -36.922  0.00  0.00    -0.046 A 
ATOM      9  C   UNL     1      44.132 -20.165 -37.461  0.00  0.00    +0.035 A 
ATOM     10  S   UNL     1      45.563 -19.990 -36.424  0.00  0.00    -0.086 S 
ATOM     11  C   UNL     1      46.162 -18.464 -37.115  0.00  0.00    +0.035 A 
ATOM     12  C   UNL     1      46.862 -17.594 -36.263  0.00  0.00    -0.046 A 
ATOM     13  C   UNL     1      47.385 -16.399 -36.748  0.00  0.00    -0.061 A 
ATOM     14  C   UNL     1      47.210 -16.069 -38.086  0.00  0.00    -0.060 A 
ATOM     15  C   UNL     1      46.519 -16.938 -38.939  0.00  0.00    -0.039 A 
ATOM     16  C   UNL     1      45.985 -18.154 -38.477  0.00  0.00    +0.055 A 
ENDROOT
BRANCH   1  17
ATOM     17  C   UNL     1      45.310 -20.482 -41.528  0.00  0.00    +0.085 C 
ATOM     18  C   UNL     1      44.610 -20.115 -42.845  0.00  0.00    -0.041 C 
BRANCH  17  19
ATOM     19  N   UNL     1      46.384 -21.537 -41.552  0.00  0.00    -0.292 N 
ATOM     20  H   UNL     1      47.250 -21.071 -41.825  0.00  0.00    +0.000 HD
BRANCH  19  22
ATOM     21  C   UNL     1      47.984 -21.979 -39.692  0.00  0.00    -0.052 C 
ATOM     22  C   UNL     1      46.557 -22.143 -40.206  0.00  0.00    -0.003 C 
ENDBRANCH  19  22
BRANCH  19  23
ATOM     23  C   UNL     1      46.111 -22.592 -42.551  0.00  0.00    -0.003 C 
ATOM     24  C   UNL     1      47.321 -23.493 -42.771  0.00  0.00    -0.052 C 
ENDBRANCH  19  23
ENDBRANCH  17  19
ENDBRANCH   1  17
TORSDOF 4
ENDMDL
MODEL 6
REMARK VINA RESULT:    -5.848     18.477     21.750
REMARK INTER + INTRA:          -8.100
REMARK INTER:                  -7.106
REMARK INTRA:                  -0.994
REMARK UNBOUND:                -0.884
REMARK  Name = cpd243.pdb
REMARK  7 active torsions:
REMARK  status: ('A' for Active; 'I' for Inactive)
REMARK    1  A    between atoms: C_1  and  C_2
REMARK    2  A    between atoms: C_2  and  N_3
REMARK    3  A    between atoms: N_3  and  C_4
REMARK    4  A    between atoms: N_3  and  C_6
REMARK    5  A    between atoms: C_4  and  C_5
REMARK    6  A    between atoms: C_6  and  C_7
REMARK    7  A    between atoms: C_6  and  C_8
REMARK                            x       y       z     vdW  Elec       q    Type
REMARK                         _______ _______ _______ _____ _____    ______ ____
ROOT
ATOM      1  C   UNL     1      43.230 -21.000 -40.201  0.00  0.00    +0.241 C 
ATOM      2  O   UNL     1      42.709 -21.749 -41.044  0.00  0.00    -0.273 OA
ATOM      3  N   UNL     1      44.611 -20.725 -40.169  0.00  0.00    -0.237 N 
ATOM      4  C   UNL     1      45.226 -19.652 -39.434  0.00  0.00    +0.055 A 
ATOM      5  C   UNL     1      44.643 -18.376 -39.421  0.00  0.00    -0.039 A 
ATOM      6  C   UNL     1      45.217 -17.315 -38.712  0.00  0.00    -0.060 A 
ATOM      7  C   UNL     1      46.404 -17.506 -38.016  0.00  0.00    -0.061 A 
ATOM      8  C   UNL     1      47.027 -18.749 -38.053  0.00  0.00    -0.046 A 
ATOM      9  C   UNL     1      46.457 -19.811 -38.772  0.00  0.00    +0.035 A 
ATOM     10  S   UNL     1      47.332 -21.355 -38.808  0.00  0.00    -0.086 S 
ATOM     11  C   UNL     1      46.806 -21.881 -40.424  0.00  0.00    +0.035 A 
ATOM     12  C   UNL     1      47.687 -22.684 -41.166  0.00  0.00    -0.046 A 
ATOM     13  C   UNL     1      47.323 -23.155 -42.425  0.00  0.00    -0.061 A 
ATOM     14  C   UNL     1      46.079 -22.825 -42.945  0.00  0.00    -0.060 A 
ATOM     15  C   UNL     1      45.196 -22.031 -42.204  0.00  0.00    -0.039 A 
ATOM     16  C   UNL     1      45.534 -21.546 -40.928  0.00  0.00    +0.055 A 
ENDROOT
BRANCH   1  17
ATOM     17  C   UNL     1      42.277 -20.495 -39.065  0.00  0.00    +0.085 C 
ATOM     18  C   UNL     1      40.835 -20.309 -39.560  0.00  0.00    -0.041 C 
BRANCH  17  19
ATOM     19  N   UNL     1      42.504 -21.191 -37.749  0.00  0.00    -0.292 N 
ATOM     20  H   UNL     1      43.388 -21.694 -37.829  0.00  0.00    +0.000 HD
BRANCH  19  22
ATOM     21  C   UNL     1      43.991 -20.199 -36.011  0.00  0.00    -0.052 C 
ATOM     22  C   UNL     1      42.602 -20.203 -36.642  0.00  0.00    -0.003 C 
ENDBRANCH  19  22
BRANCH  19  23
ATOM     23  C   UNL     1      41.450 -22.182 -37.452  0.00  0.00    -0.003 C 
ATOM     24  C   UNL     1      40.794 -21.925 -36.099  0.00  0.00    -0.052 C 
ENDBRANCH  19  23
ENDBRANCH  17  19
ENDBRANCH   1  17
TORSDOF 4
ENDMDL
MODEL 7
REMARK VINA RESULT:    -5.824     19.978     22.746
REMARK INTER + INTRA:          -8.071
REMARK INTER:                  -7.103
REMARK INTRA:                  -0.968
REMARK UNBOUND:                -0.884
REMARK  Name = cpd243.pdb
REMARK  7 active torsions:
REMARK  status: ('A' for Active; 'I' for Inactive)
REMARK    1  A    between atoms: C_1  and  C_2
REMARK    2  A    between atoms: C_2  and  N_3
REMARK    3  A    between atoms: N_3  and  C_4
REMARK    4  A    between atoms: N_3  and  C_6
REMARK    5  A    between atoms: C_4  and  C_5
REMARK    6  A    between atoms: C_6  and  C_7
REMARK    7  A    between atoms: C_6  and  C_8
REMARK                            x       y       z     vdW  Elec       q    Type
REMARK                         _______ _______ _______ _____ _____    ______ ____
ROOT
ATOM      1  C   UNL     1      44.522 -19.788 -41.580  0.00  0.00    +0.241 C 
ATOM      2  O   UNL     1      44.738 -19.166 -42.633  0.00  0.00    -0.273 OA
ATOM      3  N   UNL     1      43.934 -19.195 -40.446  0.00  0.00    -0.237 N 
ATOM      4  C   UNL     1      43.383 -19.911 -39.327  0.00  0.00    +0.055 A 
ATOM      5  C   UNL     1      42.599 -21.056 -39.534  0.00  0.00    -0.039 A 
ATOM      6  C   UNL     1      42.053 -21.774 -38.465  0.00  0.00    -0.060 A 
ATOM      7  C   UNL     1      42.265 -21.347 -37.161  0.00  0.00    -0.061 A 
ATOM      8  C   UNL     1      42.999 -20.187 -36.930  0.00  0.00    -0.046 A 
ATOM      9  C   UNL     1      43.537 -19.461 -38.003  0.00  0.00    +0.035 A 
ATOM     10  S   UNL     1      44.426 -17.969 -37.633  0.00  0.00    -0.086 S 
ATOM     11  C   UNL     1      44.018 -17.083 -39.121  0.00  0.00    +0.035 A 
ATOM     12  C   UNL     1      43.929 -15.684 -39.043  0.00  0.00    -0.046 A 
ATOM     13  C   UNL     1      43.645 -14.929 -40.177  0.00  0.00    -0.061 A 
ATOM     14  C   UNL     1      43.449 -15.570 -41.393  0.00  0.00    -0.060 A 
ATOM     15  C   UNL     1      43.545 -16.964 -41.476  0.00  0.00    -0.039 A 
ATOM     16  C   UNL     1      43.836 -17.751 -40.348  0.00  0.00    +0.055 A 
ENDROOT
BRANCH   1  17
ATOM     17  C   UNL     1      45.089 -21.247 -41.529  0.00  0.00    +0.085 C 
ATOM     18  C   UNL     1      44.707 -22.060 -42.774  0.00  0.00    -0.041 C 
BRANCH  17  19
ATOM     19  N   UNL     1      46.509 -21.313 -41.031  0.00  0.00    -0.292 N 
ATOM     20  H   UNL     1      46.859 -20.355 -41.006  0.00  0.00    +0.000 HD
BRANCH  19  22
ATOM     21  C   UNL     1      46.867 -20.825 -38.613  0.00  0.00    -0.052 C 
ATOM     22  C   UNL     1      46.561 -21.889 -39.662  0.00  0.00    -0.003 C 
ENDBRANCH  19  22
BRANCH  19  23
ATOM     23  C   UNL     1      47.384 -22.084 -41.939  0.00  0.00    -0.003 C 
ATOM     24  C   UNL     1      48.004 -23.290 -41.241  0.00  0.00    -0.052 C 
ENDBRANCH  19  23
ENDBRANCH  17  19
ENDBRANCH   1  17
TORSDOF 4
ENDMDL
MODEL 8
REMARK VINA RESULT:    -5.781     27.446     29.234
REMARK INTER + INTRA:          -8.017
REMARK INTER:                  -7.024
REMARK INTRA:                  -0.993
REMARK UNBOUND:                -0.884
REMARK  Name = cpd243.pdb
REMARK  7 active torsions:
REMARK  status: ('A' for Active; 'I' for Inactive)
REMARK    1  A    between atoms: C_1  and  C_2
REMARK    2  A    between atoms: C_2  and  N_3
REMARK    3  A    between atoms: N_3  and  C_4
REMARK    4  A    between atoms: N_3  and  C_6
REMARK    5  A    between atoms: C_4  and  C_5
REMARK    6  A    between atoms: C_6  and  C_7
REMARK    7  A    between atoms: C_6  and  C_8
REMARK                            x       y       z     vdW  Elec       q    Type
REMARK                         _______ _______ _______ _____ _____    ______ ____
ROOT
ATOM      1  C   UNL     1      45.602 -31.642 -57.033  0.00  0.00    +0.241 C 
ATOM      2  O   UNL     1      44.619 -32.174 -57.576  0.00  0.00    -0.273 OA
ATOM      3  N   UNL     1      46.263 -32.206 -55.924  0.00  0.00    -0.237 N 
ATOM      4  C   UNL     1      47.563 -31.817 -55.448  0.00  0.00    +0.055 A 
ATOM      5  C   UNL     1      48.606 -31.571 -56.354  0.00  0.00    -0.039 A 
ATOM      6  C   UNL     1      49.879 -31.187 -55.920  0.00  0.00    -0.060 A 
ATOM      7  C   UNL     1      50.141 -31.062 -54.562  0.00  0.00    -0.061 A 
ATOM      8  C   UNL     1      49.138 -31.348 -53.641  0.00  0.00    -0.046 A 
ATOM      9  C   UNL     1      47.864 -31.743 -54.076  0.00  0.00    +0.035 A 
ATOM     10  S   UNL     1      46.647 -32.131 -52.842  0.00  0.00    -0.086 S 
ATOM     11  C   UNL     1      45.761 -33.362 -53.772  0.00  0.00    +0.035 A 
ATOM     12  C   UNL     1      45.144 -34.400 -53.055  0.00  0.00    -0.046 A 
ATOM     13  C   UNL     1      44.409 -35.377 -53.720  0.00  0.00    -0.061 A 
ATOM     14  C   UNL     1      44.287 -35.320 -55.102  0.00  0.00    -0.060 A 
ATOM     15  C   UNL     1      44.895 -34.282 -55.818  0.00  0.00    -0.039 A 
ATOM     16  C   UNL     1      45.639 -33.278 -55.172  0.00  0.00    +0.055 A 
ENDROOT
BRANCH   1  17
ATOM     17  C   UNL     1      45.973 -30.215 -57.557  0.00  0.00    +0.085 C 
ATOM     18  C   UNL     1      46.094 -30.173 -59.087  0.00  0.00    -0.041 C 
BRANCH  17  19
ATOM     19  N   UNL     1      45.216 -29.113 -56.863  0.00  0.00    -0.292 N 
ATOM     20  H   UNL     1      44.847 -29.508 -55.997  0.00  0.00    +0.000 HD
BRANCH  19  22
ATOM     21  C   UNL     1      46.958 -28.262 -55.297  0.00  0.00    -0.052 C 
ATOM     22  C   UNL     1      46.119 -27.978 -56.538  0.00  0.00    -0.003 C 
ENDBRANCH  19  22
BRANCH  19  23
ATOM     23  C   UNL     1      44.068 -28.635 -57.661  0.00  0.00    -0.003 C 
ATOM     24  C   UNL     1      43.931 -27.117 -57.606  0.00  0.00    -0.052 C 
ENDBRANCH  19  23
ENDBRANCH  17  19
ENDBRANCH   1  17
TORSDOF 4
ENDMDL
MODEL 9
REMARK VINA RESULT:    -5.768      2.351      4.807
REMARK INTER + INTRA:          -8.001
REMARK INTER:                  -7.079
REMARK INTRA:                  -0.923
REMARK UNBOUND:                -0.884
REMARK  Name = cpd243.pdb
REMARK  7 active torsions:
REMARK  status: ('A' for Active; 'I' for Inactive)
REMARK    1  A    between atoms: C_1  and  C_2
REMARK    2  A    between atoms: C_2  and  N_3
REMARK    3  A    between atoms: N_3  and  C_4
REMARK    4  A    between atoms: N_3  and  C_6
REMARK    5  A    between atoms: C_4  and  C_5
REMARK    6  A    between atoms: C_6  and  C_7
REMARK    7  A    between atoms: C_6  and  C_8
REMARK                            x       y       z     vdW  Elec       q    Type
REMARK                         _______ _______ _______ _____ _____    ______ ____
ROOT
ATOM      1  C   UNL     1      36.034 -38.194 -28.547  0.00  0.00    +0.241 C 
ATOM      2  O   UNL     1      37.035 -38.511 -27.881  0.00  0.00    -0.273 OA
ATOM      3  N   UNL     1      36.118 -37.561 -29.802  0.00  0.00    -0.237 N 
ATOM      4  C   UNL     1      35.041 -37.447 -30.748  0.00  0.00    +0.055 A 
ATOM      5  C   UNL     1      34.196 -38.540 -30.995  0.00  0.00    -0.039 A 
ATOM      6  C   UNL     1      33.138 -38.457 -31.906  0.00  0.00    -0.060 A 
ATOM      7  C   UNL     1      32.916 -37.280 -32.607  0.00  0.00    -0.061 A 
ATOM      8  C   UNL     1      33.768 -36.197 -32.417  0.00  0.00    -0.046 A 
ATOM      9  C   UNL     1      34.836 -36.283 -31.511  0.00  0.00    +0.035 A 
ATOM     10  S   UNL     1      35.906 -34.875 -31.351  0.00  0.00    -0.086 S 
ATOM     11  C   UNL     1      37.399 -35.764 -30.966  0.00  0.00    +0.035 A 
ATOM     12  C   UNL     1      38.617 -35.197 -31.372  0.00  0.00    -0.046 A 
ATOM     13  C   UNL     1      39.823 -35.825 -31.073  0.00  0.00    -0.061 A 
ATOM     14  C   UNL     1      39.815 -37.021 -30.367  0.00  0.00    -0.060 A 
ATOM     15  C   UNL     1      38.602 -37.584 -29.954  0.00  0.00    -0.039 A 
ATOM     16  C   UNL     1      37.370 -36.969 -30.237  0.00  0.00    +0.055 A 
ENDROOT
BRANCH   1  17
ATOM     17  C   UNL     1      34.656 -38.401 -27.835  0.00  0.00    +0.085 C 
ATOM     18  C   UNL     1      34.400 -39.874 -27.484  0.00  0.00    -0.041 C 
BRANCH  17  19
ATOM     19  N   UNL     1      34.363 -37.351 -26.796  0.00  0.00    -0.292 N 
ATOM     20  H   UNL     1      35.120 -36.669 -26.843  0.00  0.00    +0.000 HD
BRANCH  19  22
ATOM     21  C   UNL     1      33.241 -35.555 -28.112  0.00  0.00    -0.052 C 
ATOM     22  C   UNL     1      33.073 -36.670 -27.085  0.00  0.00    -0.003 C 
ENDBRANCH  19  22
BRANCH  19  23
ATOM     23  C   UNL     1      34.347 -37.907 -25.427  0.00  0.00    -0.003 C 
ATOM     24  C   UNL     1      33.573 -37.016 -24.461  0.00  0.00    -0.052 C 
ENDBRANCH  19  23
ENDBRANCH  17  19
ENDBRANCH   1  17
TORSDOF 4
ENDMDL
MODEL 10
REMARK VINA RESULT:    -5.679      1.870      5.157
REMARK INTER + INTRA:          -7.891
REMARK INTER:                  -7.241
REMARK INTRA:                  -0.650
REMARK UNBOUND:                -0.884
REMARK  Name = cpd243.pdb
REMARK  7 active torsions:
REMARK  status: ('A' for Active; 'I' for Inactive)
REMARK    1  A    between atoms: C_1  and  C_2
REMARK    2  A    between atoms: C_2  and  N_3
REMARK    3  A    between atoms: N_3  and  C_4
REMARK    4  A    between atoms: N_3  and  C_6
REMARK    5  A    between atoms: C_4  and  C_5
REMARK    6  A    between atoms: C_6  and  C_7
REMARK    7  A    between atoms: C_6  and  C_8
REMARK                            x       y       z     vdW  Elec       q    Type
REMARK                         _______ _______ _______ _____ _____    ______ ____
ROOT
ATOM      1  C   UNL     1      35.041 -36.334 -30.974  0.00  0.00    +0.241 C 
ATOM      2  O   UNL     1      34.017 -36.282 -31.677  0.00  0.00    -0.273 OA
ATOM      3  N   UNL     1      35.761 -37.525 -30.756  0.00  0.00    -0.237 N 
ATOM      4  C   UNL     1      37.095 -37.602 -30.222  0.00  0.00    +0.055 A 
ATOM      5  C   UNL     1      38.082 -36.702 -30.650  0.00  0.00    -0.039 A 
ATOM      6  C   UNL     1      39.386 -36.750 -30.145  0.00  0.00    -0.060 A 
ATOM      7  C   UNL     1      39.735 -37.719 -29.214  0.00  0.00    -0.061 A 
ATOM      8  C   UNL     1      38.787 -38.654 -28.810  0.00  0.00    -0.046 A 
ATOM      9  C   UNL     1      37.482 -38.612 -29.323  0.00  0.00    +0.035 A 
ATOM     10  S   UNL     1      36.339 -39.862 -28.792  0.00  0.00    -0.086 S 
ATOM     11  C   UNL     1      35.377 -39.944 -30.287  0.00  0.00    +0.035 A 
ATOM     12  C   UNL     1      34.789 -41.176 -30.616  0.00  0.00    -0.046 A 
ATOM     13  C   UNL     1      33.998 -41.299 -31.755  0.00  0.00    -0.061 A 
ATOM     14  C   UNL     1      33.791 -40.191 -32.567  0.00  0.00    -0.060 A 
ATOM     15  C   UNL     1      34.369 -38.961 -32.236  0.00  0.00    -0.039 A 
ATOM     16  C   UNL     1      35.168 -38.806 -31.089  0.00  0.00    +0.055 A 
ENDROOT
BRANCH   1  17
ATOM     17  C   UNL     1      35.402 -35.017 -30.208  0.00  0.00    +0.085 C 
ATOM     18  C   UNL     1      35.698 -33.854 -31.165  0.00  0.00    -0.041 C 
BRANCH  17  19
ATOM     19  N   UNL     1      34.517 -34.764 -29.016  0.00  0.00    -0.292 N 
ATOM     20  H   UNL     1      35.115 -34.395 -28.276  0.00  0.00    +0.000 HD
BRANCH  19  22
ATOM     21  C   UNL     1      32.077 -34.391 -29.365  0.00  0.00    -0.052 C 
ATOM     22  C   UNL     1      33.467 -33.763 -29.343  0.00  0.00    -0.003 C 
ENDBRANCH  19  22
BRANCH  19  23
ATOM     23  C   UNL     1      33.893 -36.004 -28.509  0.00  0.00    -0.003 C 
ATOM     24  C   UNL     1      34.756 -36.681 -27.449  0.00  0.00    -0.052 C 
ENDBRANCH  19  23
ENDBRANCH  17  19
ENDBRANCH   1  17
TORSDOF 4
ENDMDL
MODEL 11
REMARK VINA RESULT:    -5.677     26.682     28.456
REMARK INTER + INTRA:          -7.889
REMARK INTER:                  -6.902
REMARK INTRA:                  -0.987
REMARK UNBOUND:                -0.884
REMARK  Name = cpd243.pdb
REMARK  7 active torsions:
REMARK  status: ('A' for Active; 'I' for Inactive)
REMARK    1  A    between atoms: C_1  and  C_2
REMARK    2  A    between atoms: C_2  and  N_3
REMARK    3  A    between atoms: N_3  and  C_4
REMARK    4  A    between atoms: N_3  and  C_6
REMARK    5  A    between atoms: C_4  and  C_5
REMARK    6  A    between atoms: C_6  and  C_7
REMARK    7  A    between atoms: C_6  and  C_8
REMARK                            x       y       z     vdW  Elec       q    Type
REMARK                         _______ _______ _______ _____ _____    ______ ____
ROOT
ATOM      1  C   UNL     1      46.898 -33.173 -53.343  0.00  0.00    +0.241 C 
ATOM      2  O   UNL     1      46.854 -33.490 -52.142  0.00  0.00    -0.273 OA
ATOM      3  N   UNL     1      46.409 -34.001 -54.372  0.00  0.00    -0.237 N 
ATOM      4  C   UNL     1      46.150 -33.581 -55.723  0.00  0.00    +0.055 A 
ATOM      5  C   UNL     1      45.524 -32.350 -55.974  0.00  0.00    -0.039 A 
ATOM      6  C   UNL     1      45.264 -31.913 -57.277  0.00  0.00    -0.060 A 
ATOM      7  C   UNL     1      45.607 -32.713 -58.359  0.00  0.00    -0.061 A 
ATOM      8  C   UNL     1      46.184 -33.959 -58.135  0.00  0.00    -0.046 A 
ATOM      9  C   UNL     1      46.436 -34.402 -56.828  0.00  0.00    +0.035 A 
ATOM     10  S   UNL     1      47.137 -36.020 -56.619  0.00  0.00    -0.086 S 
ATOM     11  C   UNL     1      46.376 -36.400 -55.056  0.00  0.00    +0.035 A 
ATOM     12  C   UNL     1      46.091 -37.746 -54.781  0.00  0.00    -0.046 A 
ATOM     13  C   UNL     1      45.526 -38.115 -53.563  0.00  0.00    -0.061 A 
ATOM     14  C   UNL     1      45.245 -37.138 -52.617  0.00  0.00    -0.060 A 
ATOM     15  C   UNL     1      45.535 -35.796 -52.886  0.00  0.00    -0.039 A 
ATOM     16  C   UNL     1      46.111 -35.396 -54.105  0.00  0.00    +0.055 A 
ENDROOT
BRANCH   1  17
ATOM     17  C   UNL     1      47.679 -31.855 -53.666  0.00  0.00    +0.085 C 
ATOM     18  C   UNL     1      47.156 -30.660 -52.857  0.00  0.00    -0.041 C 
BRANCH  17  19
ATOM     19  N   UNL     1      49.168 -32.060 -53.771  0.00  0.00    -0.292 N 
ATOM     20  H   UNL     1      49.399 -32.857 -53.178  0.00  0.00    +0.000 HD
BRANCH  19  22
ATOM     21  C   UNL     1      48.937 -31.376 -56.157  0.00  0.00    -0.052 C 
ATOM     22  C   UNL     1      49.560 -32.361 -55.173  0.00  0.00    -0.003 C 
ENDBRANCH  19  22
BRANCH  19  23
ATOM     23  C   UNL     1      49.929 -30.896 -53.271  0.00  0.00    -0.003 C 
ATOM     24  C   UNL     1      51.428 -31.171 -53.234  0.00  0.00    -0.052 C 
ENDBRANCH  19  23
ENDBRANCH  17  19
ENDBRANCH   1  17
TORSDOF 4
ENDMDL
MODEL 12
REMARK VINA RESULT:    -5.582      2.404      3.993
REMARK INTER + INTRA:          -7.771
REMARK INTER:                  -6.801
REMARK INTRA:                  -0.970
REMARK UNBOUND:                -0.884
REMARK  Name = cpd243.pdb
REMARK  7 active torsions:
REMARK  status: ('A' for Active; 'I' for Inactive)
REMARK    1  A    between atoms: C_1  and  C_2
REMARK    2  A    between atoms: C_2  and  N_3
REMARK    3  A    between atoms: N_3  and  C_4
REMARK    4  A    between atoms: N_3  and  C_6
REMARK    5  A    between atoms: C_4  and  C_5
REMARK    6  A    between atoms: C_6  and  C_7
REMARK    7  A    between atoms: C_6  and  C_8
REMARK                            x       y       z     vdW  Elec       q    Type
REMARK                         _______ _______ _______ _____ _____    ______ ____
ROOT
ATOM      1  C   UNL     1      34.424 -36.287 -31.347  0.00  0.00    +0.241 C 
ATOM      2  O   UNL     1      34.711 -35.755 -32.433  0.00  0.00    -0.273 OA
ATOM      3  N   UNL     1      35.358 -36.458 -30.307  0.00  0.00    -0.237 N 
ATOM      4  C   UNL     1      35.032 -36.775 -28.943  0.00  0.00    +0.055 A 
ATOM      5  C   UNL     1      33.954 -36.142 -28.306  0.00  0.00    -0.039 A 
ATOM      6  C   UNL     1      33.610 -36.433 -26.982  0.00  0.00    -0.060 A 
ATOM      7  C   UNL     1      34.356 -37.353 -26.258  0.00  0.00    -0.061 A 
ATOM      8  C   UNL     1      35.460 -37.960 -26.850  0.00  0.00    -0.046 A 
ATOM      9  C   UNL     1      35.810 -37.660 -28.175  0.00  0.00    +0.035 A 
ATOM     10  S   UNL     1      37.255 -38.441 -28.849  0.00  0.00    -0.086 S 
ATOM     11  C   UNL     1      37.735 -37.127 -29.949  0.00  0.00    +0.035 A 
ATOM     12  C   UNL     1      39.103 -36.971 -30.219  0.00  0.00    -0.046 A 
ATOM     13  C   UNL     1      39.542 -35.983 -31.096  0.00  0.00    -0.061 A 
ATOM     14  C   UNL     1      38.615 -35.150 -31.707  0.00  0.00    -0.060 A 
ATOM     15  C   UNL     1      37.249 -35.309 -31.446  0.00  0.00    -0.039 A 
ATOM     16  C   UNL     1      36.777 -36.301 -30.569  0.00  0.00    +0.055 A 
ENDROOT
BRANCH   1  17
ATOM     17  C   UNL     1      32.989 -36.904 -31.257  0.00  0.00    +0.085 C 
ATOM     18  C   UNL     1      31.897 -35.888 -31.620  0.00  0.00    -0.041 C 
BRANCH  17  19
ATOM     19  N   UNL     1      32.904 -38.292 -31.835  0.00  0.00    -0.292 N 
ATOM     20  H   UNL     1      33.845 -38.544 -32.139  0.00  0.00    +0.000 HD
BRANCH  19  22
ATOM     21  C   UNL     1      33.616 -39.964 -30.129  0.00  0.00    -0.052 C 
ATOM     22  C   UNL     1      32.444 -39.263 -30.808  0.00  0.00    -0.003 C 
ENDBRANCH  19  22
BRANCH  19  23
ATOM     23  C   UNL     1      32.021 -38.352 -33.019  0.00  0.00    -0.003 C 
ATOM     24  C   UNL     1      31.029 -39.506 -32.930  0.00  0.00    -0.052 C 
ENDBRANCH  19  23
ENDBRANCH  17  19
ENDBRANCH   1  17
TORSDOF 4
ENDMDL
MODEL 13
REMARK VINA RESULT:    -5.550     21.371     23.136
REMARK INTER + INTRA:          -7.733
REMARK INTER:                  -6.771
REMARK INTRA:                  -0.961
REMARK UNBOUND:                -0.884
REMARK  Name = cpd243.pdb
REMARK  7 active torsions:
REMARK  status: ('A' for Active; 'I' for Inactive)
REMARK    1  A    between atoms: C_1  and  C_2
REMARK    2  A    between atoms: C_2  and  N_3
REMARK    3  A    between atoms: N_3  and  C_4
REMARK    4  A    between atoms: N_3  and  C_6
REMARK    5  A    between atoms: C_4  and  C_5
REMARK    6  A    between atoms: C_6  and  C_7
REMARK    7  A    between atoms: C_6  and  C_8
REMARK                            x       y       z     vdW  Elec       q    Type
REMARK                         _______ _______ _______ _____ _____    ______ ____
ROOT
ATOM      1  C   UNL     1      45.603 -19.997 -37.790  0.00  0.00    +0.241 C 
ATOM      2  O   UNL     1      46.399 -20.949 -37.849  0.00  0.00    -0.273 OA
ATOM      3  N   UNL     1      44.719 -19.671 -38.838  0.00  0.00    -0.237 N 
ATOM      4  C   UNL     1      43.582 -18.798 -38.722  0.00  0.00    +0.055 A 
ATOM      5  C   UNL     1      42.740 -18.875 -37.603  0.00  0.00    -0.039 A 
ATOM      6  C   UNL     1      41.630 -18.037 -37.461  0.00  0.00    -0.060 A 
ATOM      7  C   UNL     1      41.326 -17.113 -38.453  0.00  0.00    -0.061 A 
ATOM      8  C   UNL     1      42.117 -17.049 -39.596  0.00  0.00    -0.046 A 
ATOM      9  C   UNL     1      43.225 -17.898 -39.742  0.00  0.00    +0.035 A 
ATOM     10  S   UNL     1      44.163 -17.787 -41.245  0.00  0.00    -0.086 S 
ATOM     11  C   UNL     1      44.672 -19.491 -41.325  0.00  0.00    +0.035 A 
ATOM     12  C   UNL     1      44.872 -20.052 -42.596  0.00  0.00    -0.046 A 
ATOM     13  C   UNL     1      45.301 -21.370 -42.727  0.00  0.00    -0.061 A 
ATOM     14  C   UNL     1      45.532 -22.130 -41.588  0.00  0.00    -0.060 A 
ATOM     15  C   UNL     1      45.340 -21.571 -40.320  0.00  0.00    -0.039 A 
ATOM     16  C   UNL     1      44.913 -20.241 -40.157  0.00  0.00    +0.055 A 
ENDROOT
BRANCH   1  17
ATOM     17  C   UNL     1      45.746 -19.074 -36.534  0.00  0.00    +0.085 C 
ATOM     18  C   UNL     1      45.343 -19.793 -35.238  0.00  0.00    -0.041 C 
BRANCH  17  19
ATOM     19  N   UNL     1      47.009 -18.255 -36.542  0.00  0.00    -0.292 N 
ATOM     20  H   UNL     1      47.700 -18.781 -37.078  0.00  0.00    +0.000 HD
BRANCH  19  22
ATOM     21  C   UNL     1      45.433 -16.341 -36.802  0.00  0.00    -0.052 C 
ATOM     22  C   UNL     1      46.780 -16.940 -37.195  0.00  0.00    -0.003 C 
ENDBRANCH  19  22
BRANCH  19  23
ATOM     23  C   UNL     1      47.556 -18.057 -35.183  0.00  0.00    -0.003 C 
ATOM     24  C   UNL     1      48.939 -18.681 -35.031  0.00  0.00    -0.052 C 
ENDBRANCH  19  23
ENDBRANCH  17  19
ENDBRANCH   1  17
TORSDOF 4
ENDMDL
MODEL 14
REMARK VINA RESULT:    -5.522     26.401     27.614
REMARK INTER + INTRA:          -7.698
REMARK INTER:                  -6.833
REMARK INTRA:                  -0.864
REMARK UNBOUND:                -0.884
REMARK  Name = cpd243.pdb
REMARK  7 active torsions:
REMARK  status: ('A' for Active; 'I' for Inactive)
REMARK    1  A    between atoms: C_1  and  C_2
REMARK    2  A    between atoms: C_2  and  N_3
REMARK    3  A    between atoms: N_3  and  C_4
REMARK    4  A    between atoms: N_3  and  C_6
REMARK    5  A    between atoms: C_4  and  C_5
REMARK    6  A    between atoms: C_6  and  C_7
REMARK    7  A    between atoms: C_6  and  C_8
REMARK                            x       y       z     vdW  Elec       q    Type
REMARK                         _______ _______ _______ _____ _____    ______ ____
ROOT
ATOM      1  C   UNL     1      45.973 -34.879 -53.527  0.00  0.00    +0.241 C 
ATOM      2  O   UNL     1      45.132 -34.301 -52.817  0.00  0.00    -0.273 OA
ATOM      3  N   UNL     1      47.144 -34.250 -53.993  0.00  0.00    -0.237 N 
ATOM      4  C   UNL     1      48.286 -34.928 -54.546  0.00  0.00    +0.055 A 
ATOM      5  C   UNL     1      48.767 -36.105 -53.952  0.00  0.00    -0.039 A 
ATOM      6  C   UNL     1      49.872 -36.788 -54.470  0.00  0.00    -0.060 A 
ATOM      7  C   UNL     1      50.535 -36.292 -55.585  0.00  0.00    -0.061 A 
ATOM      8  C   UNL     1      50.108 -35.100 -56.163  0.00  0.00    -0.046 A 
ATOM      9  C   UNL     1      49.005 -34.410 -55.638  0.00  0.00    +0.035 A 
ATOM     10  S   UNL     1      48.543 -32.876 -56.403  0.00  0.00    -0.086 S 
ATOM     11  C   UNL     1      47.907 -32.075 -54.947  0.00  0.00    +0.035 A 
ATOM     12  C   UNL     1      48.016 -30.678 -54.872  0.00  0.00    -0.046 A 
ATOM     13  C   UNL     1      47.508 -29.987 -53.775  0.00  0.00    -0.061 A 
ATOM     14  C   UNL     1      46.890 -30.691 -52.750  0.00  0.00    -0.060 A 
ATOM     15  C   UNL     1      46.774 -32.084 -52.826  0.00  0.00    -0.039 A 
ATOM     16  C   UNL     1      47.271 -32.807 -53.925  0.00  0.00    +0.055 A 
ENDROOT
BRANCH   1  17
ATOM     17  C   UNL     1      45.578 -36.315 -54.008  0.00  0.00    +0.085 C 
ATOM     18  C   UNL     1      45.289 -37.261 -52.834  0.00  0.00    -0.041 C 
BRANCH  17  19
ATOM     19  N   UNL     1      44.629 -36.307 -55.178  0.00  0.00    -0.292 N 
ATOM     20  H   UNL     1      44.069 -35.458 -55.099  0.00  0.00    +0.000 HD
BRANCH  19  22
ATOM     21  C   UNL     1      45.272 -34.923 -57.149  0.00  0.00    -0.052 C 
ATOM     22  C   UNL     1      45.378 -36.281 -56.462  0.00  0.00    -0.003 C 
ENDBRANCH  19  22
BRANCH  19  23
ATOM     23  C   UNL     1      43.703 -37.458 -55.155  0.00  0.00    -0.003 C 
ATOM     24  C   UNL     1      42.256 -37.019 -54.958  0.00  0.00    -0.052 C 
ENDBRANCH  19  23
ENDBRANCH  17  19
ENDBRANCH   1  17
TORSDOF 4
ENDMDL
MODEL 15
REMARK VINA RESULT:    -5.433      2.535      4.187
REMARK INTER + INTRA:          -7.588
REMARK INTER:                  -6.646
REMARK INTRA:                  -0.942
REMARK UNBOUND:                -0.884
REMARK  Name = cpd243.pdb
REMARK  7 active torsions:
REMARK  status: ('A' for Active; 'I' for Inactive)
REMARK    1  A    between atoms: C_1  and  C_2
REMARK    2  A    between atoms: C_2  and  N_3
REMARK    3  A    between atoms: N_3  and  C_4
REMARK    4  A    between atoms: N_3  and  C_6
REMARK    5  A    between atoms: C_4  and  C_5
REMARK    6  A    between atoms: C_6  and  C_7
REMARK    7  A    between atoms: C_6  and  C_8
REMARK                            x       y       z     vdW  Elec       q    Type
REMARK                         _______ _______ _______ _____ _____    ______ ____
ROOT
ATOM      1  C   UNL     1      35.016 -38.937 -28.451  0.00  0.00    +0.241 C 
ATOM      2  O   UNL     1      34.978 -39.840 -27.598  0.00  0.00    -0.273 OA
ATOM      3  N   UNL     1      34.744 -37.588 -28.151  0.00  0.00    -0.237 N 
ATOM      4  C   UNL     1      35.064 -36.469 -28.997  0.00  0.00    +0.055 A 
ATOM      5  C   UNL     1      36.300 -36.410 -29.657  0.00  0.00    -0.039 A 
ATOM      6  C   UNL     1      36.636 -35.337 -30.489  0.00  0.00    -0.060 A 
ATOM      7  C   UNL     1      35.744 -34.286 -30.661  0.00  0.00    -0.061 A 
ATOM      8  C   UNL     1      34.532 -34.297 -29.979  0.00  0.00    -0.046 A 
ATOM      9  C   UNL     1      34.199 -35.369 -29.137  0.00  0.00    +0.035 A 
ATOM     10  S   UNL     1      32.652 -35.294 -28.268  0.00  0.00    -0.086 S 
ATOM     11  C   UNL     1      33.157 -36.197 -26.821  0.00  0.00    +0.035 A 
ATOM     12  C   UNL     1      32.540 -35.873 -25.602  0.00  0.00    -0.046 A 
ATOM     13  C   UNL     1      32.867 -36.564 -24.439  0.00  0.00    -0.061 A 
ATOM     14  C   UNL     1      33.810 -37.582 -24.490  0.00  0.00    -0.060 A 
ATOM     15  C   UNL     1      34.421 -37.913 -25.705  0.00  0.00    -0.039 A 
ATOM     16  C   UNL     1      34.106 -37.236 -26.896  0.00  0.00    +0.055 A 
ENDROOT
BRANCH   1  17
ATOM     17  C   UNL     1      35.232 -39.411 -29.927  0.00  0.00    +0.085 C 
ATOM     18  C   UNL     1      36.205 -40.595 -30.019  0.00  0.00    -0.041 C 
BRANCH  17  19
ATOM     19  N   UNL     1      33.956 -39.462 -30.725  0.00  0.00    -0.292 N 
ATOM     20  H   UNL     1      33.199 -39.208 -30.090  0.00  0.00    +0.000 HD
BRANCH  19  22
ATOM     21  C   UNL     1      32.866 -37.473 -31.759  0.00  0.00    -0.052 C 
ATOM     22  C   UNL     1      33.999 -38.491 -31.850  0.00  0.00    -0.003 C 
ENDBRANCH  19  22
BRANCH  19  23
ATOM     23  C   UNL     1      33.672 -40.819 -31.238  0.00  0.00    -0.003 C 
ATOM     24  C   UNL     1      33.807 -40.892 -32.755  0.00  0.00    -0.052 C 
ENDBRANCH  19  23
ENDBRANCH  17  19
ENDBRANCH   1  17
TORSDOF 4
ENDMDL
MODEL 16
REMARK VINA RESULT:    -5.393     21.403     24.113
REMARK INTER + INTRA:          -7.539
REMARK INTER:                  -6.757
REMARK INTRA:                  -0.781
REMARK UNBOUND:                -0.884
REMARK  Name = cpd243.pdb
REMARK  7 active torsions:
REMARK  status: ('A' for Active; 'I' for Inactive)
REMARK    1  A    between atoms: C_1  and  C_2
REMARK    2  A    between atoms: C_2  and  N_3
REMARK    3  A    between atoms: N_3  and  C_4
REMARK    4  A    between atoms: N_3  and  C_6
REMARK    5  A    between atoms: C_4  and  C_5
REMARK    6  A    between atoms: C_6  and  C_7
REMARK    7  A    between atoms: C_6  and  C_8
REMARK                            x       y       z     vdW  Elec       q    Type
REMARK                         _______ _______ _______ _____ _____    ______ ____
ROOT
ATOM      1  C   UNL     1      44.473 -18.799 -40.112  0.00  0.00    +0.241 C 
ATOM      2  O   UNL     1      43.648 -18.886 -41.038  0.00  0.00    -0.273 OA
ATOM      3  N   UNL     1      44.990 -17.569 -39.659  0.00  0.00    -0.237 N 
ATOM      4  C   UNL     1      45.692 -17.371 -38.420  0.00  0.00    +0.055 A 
ATOM      5  C   UNL     1      45.239 -17.984 -37.242  0.00  0.00    -0.039 A 
ATOM      6  C   UNL     1      45.905 -17.812 -36.024  0.00  0.00    -0.060 A 
ATOM      7  C   UNL     1      47.031 -17.003 -35.956  0.00  0.00    -0.061 A 
ATOM      8  C   UNL     1      47.473 -16.345 -37.100  0.00  0.00    -0.046 A 
ATOM      9  C   UNL     1      46.799 -16.509 -38.319  0.00  0.00    +0.035 A 
ATOM     10  S   UNL     1      47.396 -15.605 -39.726  0.00  0.00    -0.086 S 
ATOM     11  C   UNL     1      45.831 -15.395 -40.546  0.00  0.00    +0.035 A 
ATOM     12  C   UNL     1      45.655 -14.243 -41.328  0.00  0.00    -0.046 A 
ATOM     13  C   UNL     1      44.466 -14.034 -42.022  0.00  0.00    -0.061 A 
ATOM     14  C   UNL     1      43.450 -14.977 -41.935  0.00  0.00    -0.060 A 
ATOM     15  C   UNL     1      43.626 -16.130 -41.162  0.00  0.00    -0.039 A 
ATOM     16  C   UNL     1      44.818 -16.370 -40.456  0.00  0.00    +0.055 A 
ENDROOT
BRANCH   1  17
ATOM     17  C   UNL     1      45.031 -20.159 -39.574  0.00  0.00    +0.085 C 
ATOM     18  C   UNL     1      43.913 -21.087 -39.078  0.00  0.00    -0.041 C 
BRANCH  17  19
ATOM     19  N   UNL     1      46.117 -20.738 -40.442  0.00  0.00    -0.292 N 
ATOM     20  H   UNL     1      46.331 -20.039 -41.154  0.00  0.00    +0.000 HD
BRANCH  19  22
ATOM     21  C   UNL     1      48.010 -22.316 -40.068  0.00  0.00    -0.052 C 
ATOM     22  C   UNL     1      47.339 -21.014 -39.642  0.00  0.00    -0.003 C 
ENDBRANCH  19  22
BRANCH  19  23
ATOM     23  C   UNL     1      45.680 -21.966 -41.140  0.00  0.00    -0.003 C 
ATOM     24  C   UNL     1      45.253 -21.682 -42.576  0.00  0.00    -0.052 C 
ENDBRANCH  19  23
ENDBRANCH  17  19
ENDBRANCH   1  17
TORSDOF 4
ENDMDL
MODEL 17
REMARK VINA RESULT:    -5.291      2.415      5.311
REMARK INTER + INTRA:          -7.412
REMARK INTER:                  -6.640
REMARK INTRA:                  -0.772
REMARK UNBOUND:                -0.884
REMARK  Name = cpd243.pdb
REMARK  7 active torsions:
REMARK  status: ('A' for Active; 'I' for Inactive)
REMARK    1  A    between atoms: C_1  and  C_2
REMARK    2  A    between atoms: C_2  and  N_3
REMARK    3  A    between atoms: N_3  and  C_4
REMARK    4  A    between atoms: N_3  and  C_6
REMARK    5  A    between atoms: C_4  and  C_5
REMARK    6  A    between atoms: C_6  and  C_7
REMARK    7  A    between atoms: C_6  and  C_8
REMARK                            x       y       z     vdW  Elec       q    Type
REMARK                         _______ _______ _______ _____ _____    ______ ____
ROOT
ATOM      1  C   UNL     1      33.069 -35.703 -30.318  0.00  0.00    +0.241 C 
ATOM      2  O   UNL     1      32.292 -34.908 -29.762  0.00  0.00    -0.273 OA
ATOM      3  N   UNL     1      33.650 -36.800 -29.651  0.00  0.00    -0.237 N 
ATOM      4  C   UNL     1      34.297 -37.913 -30.293  0.00  0.00    +0.055 A 
ATOM      5  C   UNL     1      33.737 -38.493 -31.441  0.00  0.00    -0.039 A 
ATOM      6  C   UNL     1      34.346 -39.573 -32.088  0.00  0.00    -0.060 A 
ATOM      7  C   UNL     1      35.523 -40.110 -31.584  0.00  0.00    -0.061 A 
ATOM      8  C   UNL     1      36.074 -39.584 -30.419  0.00  0.00    -0.046 A 
ATOM      9  C   UNL     1      35.457 -38.507 -29.764  0.00  0.00    +0.035 A 
ATOM     10  S   UNL     1      36.194 -37.916 -28.261  0.00  0.00    -0.086 S 
ATOM     11  C   UNL     1      34.696 -37.384 -27.464  0.00  0.00    +0.035 A 
ATOM     12  C   UNL     1      34.648 -37.443 -26.062  0.00  0.00    -0.046 A 
ATOM     13  C   UNL     1      33.517 -37.012 -25.375  0.00  0.00    -0.061 A 
ATOM     14  C   UNL     1      32.431 -36.519 -26.086  0.00  0.00    -0.060 A 
ATOM     15  C   UNL     1      32.479 -36.452 -27.483  0.00  0.00    -0.039 A 
ATOM     16  C   UNL     1      33.610 -36.875 -28.203  0.00  0.00    +0.055 A 
ENDROOT
BRANCH   1  17
ATOM     17  C   UNL     1      33.496 -35.323 -31.776  0.00  0.00    +0.085 C 
ATOM     18  C   UNL     1      32.291 -35.216 -32.721  0.00  0.00    -0.041 C 
BRANCH  17  19
ATOM     19  N   UNL     1      34.549 -34.248 -31.823  0.00  0.00    -0.292 N 
ATOM     20  H   UNL     1      35.016 -34.330 -32.726  0.00  0.00    +0.000 HD
BRANCH  19  22
ATOM     21  C   UNL     1      34.392 -32.168 -30.458  0.00  0.00    -0.052 C 
ATOM     22  C   UNL     1      33.930 -32.900 -31.714  0.00  0.00    -0.003 C 
ENDBRANCH  19  22
BRANCH  19  23
ATOM     23  C   UNL     1      35.573 -34.421 -30.773  0.00  0.00    -0.003 C 
ATOM     24  C   UNL     1      36.752 -35.256 -31.261  0.00  0.00    -0.052 C 
ENDBRANCH  19  23
ENDBRANCH  17  19
ENDBRANCH   1  17
TORSDOF 4
ENDMDL
MODEL 18
REMARK VINA RESULT:    -5.239     16.392     19.738
REMARK INTER + INTRA:          -7.348
REMARK INTER:                  -6.417
REMARK INTRA:                  -0.932
REMARK UNBOUND:                -0.884
REMARK  Name = cpd243.pdb
REMARK  7 active torsions:
REMARK  status: ('A' for Active; 'I' for Inactive)
REMARK    1  A    between atoms: C_1  and  C_2
REMARK    2  A    between atoms: C_2  and  N_3
REMARK    3  A    between atoms: N_3  and  C_4
REMARK    4  A    between atoms: N_3  and  C_6
REMARK    5  A    between atoms: C_4  and  C_5
REMARK    6  A    between atoms: C_6  and  C_7
REMARK    7  A    between atoms: C_6  and  C_8
REMARK                            x       y       z     vdW  Elec       q    Type
REMARK                         _______ _______ _______ _____ _____    ______ ____
ROOT
ATOM      1  C   UNL     1      41.531 -20.567 -36.368  0.00  0.00    +0.241 C 
ATOM      2  O   UNL     1      41.264 -21.025 -37.492  0.00  0.00    -0.273 OA
ATOM      3  N   UNL     1      42.763 -19.956 -36.062  0.00  0.00    -0.237 N 
ATOM      4  C   UNL     1      43.021 -19.146 -34.902  0.00  0.00    +0.055 A 
ATOM      5  C   UNL     1      42.077 -18.201 -34.472  0.00  0.00    -0.039 A 
ATOM      6  C   UNL     1      42.299 -17.403 -33.346  0.00  0.00    -0.060 A 
ATOM      7  C   UNL     1      43.486 -17.519 -32.635  0.00  0.00    -0.061 A 
ATOM      8  C   UNL     1      44.459 -18.414 -33.068  0.00  0.00    -0.046 A 
ATOM      9  C   UNL     1      44.241 -19.208 -34.204  0.00  0.00    +0.035 A 
ATOM     10  S   UNL     1      45.545 -20.297 -34.721  0.00  0.00    -0.086 S 
ATOM     11  C   UNL     1      45.206 -20.249 -36.467  0.00  0.00    +0.035 A 
ATOM     12  C   UNL     1      46.291 -20.405 -37.345  0.00  0.00    -0.046 A 
ATOM     13  C   UNL     1      46.090 -20.409 -38.722  0.00  0.00    -0.061 A 
ATOM     14  C   UNL     1      44.804 -20.258 -39.226  0.00  0.00    -0.060 A 
ATOM     15  C   UNL     1      43.721 -20.111 -38.353  0.00  0.00    -0.039 A 
ATOM     16  C   UNL     1      43.893 -20.108 -36.957  0.00  0.00    +0.055 A 
ENDROOT
BRANCH   1  17
ATOM     17  C   UNL     1      40.468 -20.851 -35.253  0.00  0.00    +0.085 C 
ATOM     18  C   UNL     1      39.147 -20.112 -35.513  0.00  0.00    -0.041 C 
BRANCH  17  19
ATOM     19  N   UNL     1      40.417 -22.297 -34.838  0.00  0.00    -0.292 N 
ATOM     20  H   UNL     1      41.259 -22.741 -35.207  0.00  0.00    +0.000 HD
BRANCH  19  22
ATOM     21  C   UNL     1      41.314 -21.383 -32.700  0.00  0.00    -0.052 C 
ATOM     22  C   UNL     1      40.408 -22.420 -33.357  0.00  0.00    -0.003 C 
ENDBRANCH  19  22
BRANCH  19  23
ATOM     23  C   UNL     1      39.252 -23.003 -35.412  0.00  0.00    -0.003 C 
ATOM     24  C   UNL     1      38.416 -23.687 -34.336  0.00  0.00    -0.052 C 
ENDBRANCH  19  23
ENDBRANCH  17  19
ENDBRANCH   1  17
TORSDOF 4
ENDMDL
MODEL 19
REMARK VINA RESULT:    -4.924     20.388     23.164
REMARK INTER + INTRA:          -6.959
REMARK INTER:                  -6.149
REMARK INTRA:                  -0.811
REMARK UNBOUND:                -0.884
REMARK  Name = cpd243.pdb
REMARK  7 active torsions:
REMARK  status: ('A' for Active; 'I' for Inactive)
REMARK    1  A    between atoms: C_1  and  C_2
REMARK    2  A    between atoms: C_2  and  N_3
REMARK    3  A    between atoms: N_3  and  C_4
REMARK    4  A    between atoms: N_3  and  C_6
REMARK    5  A    between atoms: C_4  and  C_5
REMARK    6  A    between atoms: C_6  and  C_7
REMARK    7  A    between atoms: C_6  and  C_8
REMARK                            x       y       z     vdW  Elec       q    Type
REMARK                         _______ _______ _______ _____ _____    ______ ____
ROOT
ATOM      1  C   UNL     1      45.129 -18.770 -40.527  0.00  0.00    +0.241 C 
ATOM      2  O   UNL     1      45.014 -18.815 -41.763  0.00  0.00    -0.273 OA
ATOM      3  N   UNL     1      44.485 -19.678 -39.664  0.00  0.00    -0.237 N 
ATOM      4  C   UNL     1      44.809 -19.877 -38.277  0.00  0.00    +0.055 A 
ATOM      5  C   UNL     1      46.149 -19.934 -37.863  0.00  0.00    -0.039 A 
ATOM      6  C   UNL     1      46.494 -20.121 -36.521  0.00  0.00    -0.060 A 
ATOM      7  C   UNL     1      45.500 -20.278 -35.563  0.00  0.00    -0.061 A 
ATOM      8  C   UNL     1      44.164 -20.274 -35.955  0.00  0.00    -0.046 A 
ATOM      9  C   UNL     1      43.819 -20.096 -37.303  0.00  0.00    +0.035 A 
ATOM     10  S   UNL     1      42.096 -20.143 -37.732  0.00  0.00    -0.086 S 
ATOM     11  C   UNL     1      42.286 -20.817 -39.368  0.00  0.00    +0.035 A 
ATOM     12  C   UNL     1      41.249 -21.623 -39.864  0.00  0.00    -0.046 A 
ATOM     13  C   UNL     1      41.320 -22.155 -41.148  0.00  0.00    -0.061 A 
ATOM     14  C   UNL     1      42.428 -21.882 -41.941  0.00  0.00    -0.060 A 
ATOM     15  C   UNL     1      43.459 -21.072 -41.451  0.00  0.00    -0.039 A 
ATOM     16  C   UNL     1      43.411 -20.517 -40.160  0.00  0.00    +0.055 A 
ENDROOT
BRANCH   1  17
ATOM     17  C   UNL     1      45.915 -17.538 -39.966  0.00  0.00    +0.085 C 
ATOM     18  C   UNL     1      47.183 -17.241 -40.778  0.00  0.00    -0.041 C 
BRANCH  17  19
ATOM     19  N   UNL     1      45.019 -16.390 -39.582  0.00  0.00    -0.292 N 
ATOM     20  H   UNL     1      44.076 -16.635 -39.885  0.00  0.00    +0.000 HD
BRANCH  19  22
ATOM     21  C   UNL     1      46.233 -15.380 -37.653  0.00  0.00    -0.052 C 
ATOM     22  C   UNL     1      45.023 -16.189 -38.109  0.00  0.00    -0.003 C 
ENDBRANCH  19  22
BRANCH  19  23
ATOM     23  C   UNL     1      45.395 -15.134 -40.265  0.00  0.00    -0.003 C 
ATOM     24  C   UNL     1      44.175 -14.392 -40.801  0.00  0.00    -0.052 C 
ENDBRANCH  19  23
ENDBRANCH  17  19
ENDBRANCH   1  17
TORSDOF 4
ENDMDL
MODEL 20
REMARK VINA RESULT:    -4.872     16.454     20.073
REMARK INTER + INTRA:          -6.896
REMARK INTER:                  -5.911
REMARK INTRA:                  -0.984
REMARK UNBOUND:                -0.884
REMARK  Name = cpd243.pdb
REMARK  7 active torsions:
REMARK  status: ('A' for Active; 'I' for Inactive)
REMARK    1  A    between atoms: C_1  and  C_2
REMARK    2  A    between atoms: C_2  and  N_3
REMARK    3  A    between atoms: N_3  and  C_4
REMARK    4  A    between atoms: N_3  and  C_6
REMARK    5  A    between atoms: C_4  and  C_5
REMARK    6  A    between atoms: C_6  and  C_7
REMARK    7  A    between atoms: C_6  and  C_8
REMARK                            x       y       z     vdW  Elec       q    Type
REMARK                         _______ _______ _______ _____ _____    ______ ____
ROOT
ATOM      1  C   UNL     1      40.931 -18.575 -33.686  0.00  0.00    +0.241 C 
ATOM      2  O   UNL     1      40.450 -18.405 -32.553  0.00  0.00    -0.273 OA
ATOM      3  N   UNL     1      40.407 -19.499 -34.610  0.00  0.00    -0.237 N 
ATOM      4  C   UNL     1      40.710 -19.529 -36.016  0.00  0.00    +0.055 A 
ATOM      5  C   UNL     1      40.774 -18.337 -36.753  0.00  0.00    -0.039 A 
ATOM      6  C   UNL     1      41.071 -18.335 -38.120  0.00  0.00    -0.060 A 
ATOM      7  C   UNL     1      41.289 -19.535 -38.785  0.00  0.00    -0.061 A 
ATOM      8  C   UNL     1      41.184 -20.734 -38.087  0.00  0.00    -0.046 A 
ATOM      9  C   UNL     1      40.876 -20.736 -36.718  0.00  0.00    +0.035 A 
ATOM     10  S   UNL     1      40.717 -22.306 -35.904  0.00  0.00    -0.086 S 
ATOM     11  C   UNL     1      39.499 -21.820 -34.702  0.00  0.00    +0.035 A 
ATOM     12  C   UNL     1      38.593 -22.798 -34.262  0.00  0.00    -0.046 A 
ATOM     13  C   UNL     1      37.636 -22.491 -33.298  0.00  0.00    -0.061 A 
ATOM     14  C   UNL     1      37.582 -21.207 -32.772  0.00  0.00    -0.060 A 
ATOM     15  C   UNL     1      38.489 -20.233 -33.204  0.00  0.00    -0.039 A 
ATOM     16  C   UNL     1      39.470 -20.516 -34.171  0.00  0.00    +0.055 A 
ENDROOT
BRANCH   1  17
ATOM     17  C   UNL     1      42.265 -17.807 -33.976  0.00  0.00    +0.085 C 
ATOM     18  C   UNL     1      42.068 -16.284 -33.977  0.00  0.00    -0.041 C 
BRANCH  17  19
ATOM     19  N   UNL     1      43.449 -18.381 -33.244  0.00  0.00    -0.292 N 
ATOM     20  H   UNL     1      43.140 -18.582 -32.292  0.00  0.00    +0.000 HD
BRANCH  19  22
ATOM     21  C   UNL     1      44.272 -19.426 -35.352  0.00  0.00    -0.052 C 
ATOM     22  C   UNL     1      43.905 -19.641 -33.887  0.00  0.00    -0.003 C 
ENDBRANCH  19  22
BRANCH  19  23
ATOM     23  C   UNL     1      44.570 -17.422 -33.156  0.00  0.00    -0.003 C 
ATOM     24  C   UNL     1      45.015 -17.199 -31.715  0.00  0.00    -0.052 C 
ENDBRANCH  19  23
ENDBRANCH  17  19
ENDBRANCH   1  17
TORSDOF 4
ENDMDL
