@<TRIPOS>MOLECULE
*****
 23 25 0 0 0
SMALL
GASTEIGER

@<TRIPOS>ATOM
      1 C           0.0000   -3.0000    0.0000 C.3     1  UNL1        0.0188
      2 C           0.8660   -3.5000    0.0000 C.3     1  UNL1        0.0725
      3 N           1.7321   -3.0000    0.0000 N.3     1  UNL1       -0.2665
      4 C           2.5981   -3.5000    0.0000 C.3     1  UNL1        0.0725
      5 C           3.4641   -3.0000    0.0000 C.3     1  UNL1        0.0188
      6 C           1.7321   -2.0000    0.0000 C.3     1  UNL1        0.1357
      7 C           2.5981   -1.5000    0.0000 C.3     1  UNL1        0.0272
      8 C           0.8660   -1.5000    0.0000 C.2     1  UNL1        0.2476
      9 O           0.0000   -2.0000    0.0000 O.2     1  UNL1       -0.2727
     10 N           0.8660   -0.5000    0.0000 N.am    1  UNL1       -0.2353
     11 C           1.7321   -0.0000    0.0000 C.ar    1  UNL1        0.0641
     12 C           2.5981   -0.5000    0.0000 C.ar    1  UNL1        0.0157
     13 C           3.4641   -0.0000    0.0000 C.ar    1  UNL1        0.0013
     14 C           3.4641    1.0000    0.0000 C.ar    1  UNL1        0.0006
     15 C           2.5981    1.5000    0.0000 C.ar    1  UNL1        0.0077
     16 C           1.7321    1.0000    0.0000 C.ar    1  UNL1        0.0435
     17 S           0.8660    1.5000    0.0000 S.3     1  UNL1       -0.0844
     18 C           0.0000    1.0000    0.0000 C.ar    1  UNL1        0.0435
     19 C          -0.8660    1.5000    0.0000 C.ar    1  UNL1        0.0077
     20 C          -1.7321    1.0000    0.0000 C.ar    1  UNL1        0.0006
     21 C          -1.7321    0.0000    0.0000 C.ar    1  UNL1        0.0013
     22 C          -0.8660   -0.5000    0.0000 C.ar    1  UNL1        0.0157
     23 C           0.0000   -0.0000    0.0000 C.ar    1  UNL1        0.0641
@<TRIPOS>BOND
     1     1     2    1
     2     2     3    1
     3     3     4    1
     4     4     5    1
     5     3     6    1
     6     6     7    1
     7     6     8    1
     8     8     9    2
     9     8    10   am
    10    10    11    1
    11    11    12   ar
    12    12    13   ar
    13    13    14   ar
    14    14    15   ar
    15    15    16   ar
    16    11    16   ar
    17    16    17    1
    18    17    18    1
    19    18    19   ar
    20    19    20   ar
    21    20    21   ar
    22    21    22   ar
    23    22    23   ar
    24    18    23   ar
    25    10    23    1
