REMARK  Name = cpd243.pdb
REMARK  7 active torsions:
REMARK  status: ('A' for Active; 'I' for Inactive)
REMARK    1  A    between atoms: C_1  and  C_2
REMARK    2  A    between atoms: C_2  and  N_3
REMARK    3  A    between atoms: N_3  and  C_4
REMARK    4  A    between atoms: N_3  and  C_6
REMARK    5  A    between atoms: C_4  and  C_5
REMARK    6  A    between atoms: C_6  and  C_7
REMARK    7  A    between atoms: C_6  and  C_8
REMARK                            x       y       z     vdW  Elec       q    Type
REMARK                         _______ _______ _______ _____ _____    ______ ____
ROOT
ATOM      1  C   UNL     1       0.367  -1.669  -0.749  0.00  0.00    +0.241 C 
ATOM      2  O   UNL     1      -0.732  -2.200  -0.982  0.00  0.00    -0.273 OA
ATOM      3  N   UNL     1       0.495  -0.352  -0.266  0.00  0.00    -0.237 N 
ATOM      4  C   UNL     1       1.689   0.209   0.307  0.00  0.00    +0.055 A 
ATOM      5  C   UNL     1       2.464  -0.540   1.205  0.00  0.00    -0.039 A 
ATOM      6  C   UNL     1       3.632  -0.022   1.774  0.00  0.00    -0.060 A 
ATOM      7  C   UNL     1       4.038   1.271   1.471  0.00  0.00    -0.061 A 
ATOM      8  C   UNL     1       3.261   2.052   0.621  0.00  0.00    -0.046 A 
ATOM      9  C   UNL     1       2.084   1.536   0.058  0.00  0.00    +0.035 A 
ATOM     10  S   UNL     1       1.123   2.605  -0.984  0.00  0.00    -0.086 S 
ATOM     11  C   UNL     1      -0.475   1.921  -0.604  0.00  0.00    +0.035 A 
ATOM     12  C   UNL     1      -1.581   2.784  -0.653  0.00  0.00    -0.046 A 
ATOM     13  C   UNL     1      -2.863   2.305  -0.398  0.00  0.00    -0.061 A 
ATOM     14  C   UNL     1      -3.043   0.962  -0.094  0.00  0.00    -0.060 A 
ATOM     15  C   UNL     1      -1.943   0.098  -0.052  0.00  0.00    -0.039 A 
ATOM     16  C   UNL     1      -0.638   0.553  -0.311  0.00  0.00    +0.055 A 
ENDROOT
BRANCH   1  17
ATOM     17  C   UNL     1       1.623  -2.501  -1.175  0.00  0.00    +0.085 C 
ATOM     18  C   UNL     1       2.621  -1.666  -1.990  0.00  0.00    -0.041 C 
BRANCH  17  19
ATOM     19  N   UNL     1       2.150  -3.383  -0.074  0.00  0.00    -0.292 N 
ATOM     20  H   UNL     1       2.423  -2.768   0.693  0.00  0.00    +0.000 HD
BRANCH  19  22
ATOM     21  C   UNL     1       0.430  -3.818   1.677  0.00  0.00    -0.052 C 
ATOM     22  C   UNL     1       1.097  -4.319   0.400  0.00  0.00    -0.003 C 
ENDBRANCH  19  22
BRANCH  19  23
ATOM     23  C   UNL     1       3.350  -4.139  -0.489  0.00  0.00    -0.003 C 
ATOM     24  C   UNL     1       4.637  -3.423  -0.094  0.00  0.00    -0.052 C 
ENDBRANCH  19  23
ENDBRANCH  17  19
ENDBRANCH   1  17
TORSDOF 4
