REMARK  Name = cpd225.pdb
REMARK  8 active torsions:
REMARK  status: ('A' for Active; 'I' for Inactive)
REMARK    1  A    between atoms: C_1  and  C_2
REMARK    2  A    between atoms: C_2  and  S_3
REMARK    3  A    between atoms: S_3  and  C_4
REMARK    4  A    between atoms: C_4  and  C_5
REMARK    5  A    between atoms: C_5  and  N_6
REMARK    6  A    between atoms: N_6  and  C_7
REMARK    7  A    between atoms: N_6  and  C_8
REMARK    8  A    between atoms: N_6  and  C_9
REMARK                            x       y       z     vdW  Elec       q    Type
REMARK                         _______ _______ _______ _____ _____    ______ ____
ROOT
ATOM      1  C   UNL     1      -1.000  -1.000   0.000  0.00  0.00    -0.080 C 
ENDROOT
BRANCH   1   2
ATOM      2  N   UNL     1       0.000  -1.000   0.000  0.00  0.00    +0.375 N 
ATOM      3  C   UNL     1       0.000  -2.000   0.000  0.00  0.00    -0.101 C 
ATOM      4  C   UNL     1       1.000  -1.000   0.000  0.00  0.00    -0.101 C 
ATOM      5  C   UNL     1       0.000   0.000   0.000  0.00  0.00    -0.101 C 
ENDBRANCH   1   2
BRANCH   1   6
ATOM      6  C   UNL     1      -2.344   0.181   0.025  0.00  0.00    -0.021 C 
BRANCH   6   7
ATOM      7  S   UNL     1      -3.947  -0.708   0.000  0.00  0.00    -0.163 S 
BRANCH   7   9
ATOM      8  C   UNL     1      -5.162   1.645  -0.857  0.00  0.00    -0.056 C 
ATOM      9  C   UNL     1      -5.090   0.681   0.313  0.00  0.00    -0.009 C 
ENDBRANCH   7   9
ENDBRANCH   6   7
ENDBRANCH   1   6
TORSDOF 4
