MODEL 1
REMARK VINA RESULT:    -3.892      0.000      0.000
REMARK INTER + INTRA:          -2.891
REMARK INTER:                  -4.347
REMARK INTRA:                   1.457
REMARK UNBOUND:                 1.457
REMARK  Name = cpd225.pdb
REMARK  8 active torsions:
REMARK  status: ('A' for Active; 'I' for Inactive)
REMARK    1  A    between atoms: C_1  and  C_2
REMARK    2  A    between atoms: C_2  and  S_3
REMARK    3  A    between atoms: S_3  and  C_4
REMARK    4  A    between atoms: C_4  and  C_5
REMARK    5  A    between atoms: C_5  and  N_6
REMARK    6  A    between atoms: N_6  and  C_7
REMARK    7  A    between atoms: N_6  and  C_8
REMARK    8  A    between atoms: N_6  and  C_9
REMARK                            x       y       z     vdW  Elec       q    Type
REMARK                         _______ _______ _______ _____ _____    ______ ____
ROOT
ATOM      1  C   UNL     1      47.100 -21.835 -41.385  0.00  0.00    -0.080 C 
ENDROOT
BRANCH   1   2
ATOM      2  N   UNL     1      47.541 -22.676 -41.697  0.00  0.00    +0.375 N 
ATOM      3  C   UNL     1      46.789 -22.832 -42.338  0.00  0.00    -0.101 C 
ATOM      4  C   UNL     1      47.981 -23.518 -42.010  0.00  0.00    -0.101 C 
ATOM      5  C   UNL     1      48.292 -22.521 -41.056  0.00  0.00    -0.101 C 
ENDBRANCH   1   2
BRANCH   1   6
ATOM      6  C   UNL     1      46.988 -20.116 -41.871  0.00  0.00    -0.021 C 
BRANCH   6   7
ATOM      7  S   UNL     1      45.855 -19.227 -40.736  0.00  0.00    -0.163 S 
BRANCH   7   9
ATOM      8  C   UNL     1      44.292 -19.858 -42.951  0.00  0.00    -0.056 C 
ATOM      9  C   UNL     1      44.517 -18.788 -41.898  0.00  0.00    -0.009 C 
ENDBRANCH   7   9
ENDBRANCH   6   7
ENDBRANCH   1   6
TORSDOF 4
ENDMDL
MODEL 2
REMARK VINA RESULT:    -3.813     36.961     38.211
REMARK INTER + INTRA:          -2.803
REMARK INTER:                  -4.260
REMARK INTRA:                   1.457
REMARK UNBOUND:                 1.457
REMARK  Name = cpd225.pdb
REMARK  8 active torsions:
REMARK  status: ('A' for Active; 'I' for Inactive)
REMARK    1  A    between atoms: C_1  and  C_2
REMARK    2  A    between atoms: C_2  and  S_3
REMARK    3  A    between atoms: S_3  and  C_4
REMARK    4  A    between atoms: C_4  and  C_5
REMARK    5  A    between atoms: C_5  and  N_6
REMARK    6  A    between atoms: N_6  and  C_7
REMARK    7  A    between atoms: N_6  and  C_8
REMARK    8  A    between atoms: N_6  and  C_9
REMARK                            x       y       z     vdW  Elec       q    Type
REMARK                         _______ _______ _______ _____ _____    ______ ____
ROOT
ATOM      1  C   UNL     1      62.987 -26.108  -7.322  0.00  0.00    -0.080 C 
ENDROOT
BRANCH   1   2
ATOM      2  N   UNL     1      62.952 -26.644  -6.478  0.00  0.00    +0.375 N 
ATOM      3  C   UNL     1      62.391 -27.332  -6.939  0.00  0.00    -0.101 C 
ATOM      4  C   UNL     1      62.917 -27.181  -5.635  0.00  0.00    -0.101 C 
ATOM      5  C   UNL     1      63.514 -25.957  -6.018  0.00  0.00    -0.101 C 
ENDBRANCH   1   2
BRANCH   1   6
ATOM      6  C   UNL     1      62.049 -24.821  -8.136  0.00  0.00    -0.021 C 
BRANCH   6   7
ATOM      7  S   UNL     1      62.730 -24.527  -9.812  0.00  0.00    -0.163 S 
BRANCH   7   9
ATOM      8  C   UNL     1      63.516 -22.471  -8.108  0.00  0.00    -0.056 C 
ATOM      9  C   UNL     1      63.485 -22.882  -9.569  0.00  0.00    -0.009 C 
ENDBRANCH   7   9
ENDBRANCH   6   7
ENDBRANCH   1   6
TORSDOF 4
ENDMDL
MODEL 3
REMARK VINA RESULT:    -3.775     19.506     20.339
REMARK INTER + INTRA:          -2.760
REMARK INTER:                  -4.313
REMARK INTRA:                   1.553
REMARK UNBOUND:                 1.457
REMARK  Name = cpd225.pdb
REMARK  8 active torsions:
REMARK  status: ('A' for Active; 'I' for Inactive)
REMARK    1  A    between atoms: C_1  and  C_2
REMARK    2  A    between atoms: C_2  and  S_3
REMARK    3  A    between atoms: S_3  and  C_4
REMARK    4  A    between atoms: C_4  and  C_5
REMARK    5  A    between atoms: C_5  and  N_6
REMARK    6  A    between atoms: N_6  and  C_7
REMARK    7  A    between atoms: N_6  and  C_8
REMARK    8  A    between atoms: N_6  and  C_9
REMARK                            x       y       z     vdW  Elec       q    Type
REMARK                         _______ _______ _______ _____ _____    ______ ____
ROOT
ATOM      1  C   UNL     1      41.254 -37.158 -31.447  0.00  0.00    -0.080 C 
ENDROOT
BRANCH   1   2
ATOM      2  N   UNL     1      42.254 -37.164 -31.414  0.00  0.00    +0.375 N 
ATOM      3  C   UNL     1      42.243 -38.154 -31.273  0.00  0.00    -0.101 C 
ATOM      4  C   UNL     1      43.253 -37.170 -31.381  0.00  0.00    -0.101 C 
ATOM      5  C   UNL     1      42.265 -36.174 -31.555  0.00  0.00    -0.101 C 
ENDBRANCH   1   2
BRANCH   1   6
ATOM      6  C   UNL     1      39.872 -37.229 -30.313  0.00  0.00    -0.021 C 
BRANCH   6   7
ATOM      7  S   UNL     1      38.449 -36.311 -31.017  0.00  0.00    -0.163 S 
BRANCH   7   9
ATOM      8  C   UNL     1      37.718 -37.519 -28.618  0.00  0.00    -0.056 C 
ATOM      9  C   UNL     1      37.192 -36.635 -29.733  0.00  0.00    -0.009 C 
ENDBRANCH   7   9
ENDBRANCH   6   7
ENDBRANCH   1   6
TORSDOF 4
ENDMDL
MODEL 4
REMARK VINA RESULT:    -3.702     36.970     38.203
REMARK INTER + INTRA:          -2.679
REMARK INTER:                  -4.211
REMARK INTRA:                   1.533
REMARK UNBOUND:                 1.457
REMARK  Name = cpd225.pdb
REMARK  8 active torsions:
REMARK  status: ('A' for Active; 'I' for Inactive)
REMARK    1  A    between atoms: C_1  and  C_2
REMARK    2  A    between atoms: C_2  and  S_3
REMARK    3  A    between atoms: S_3  and  C_4
REMARK    4  A    between atoms: C_4  and  C_5
REMARK    5  A    between atoms: C_5  and  N_6
REMARK    6  A    between atoms: N_6  and  C_7
REMARK    7  A    between atoms: N_6  and  C_8
REMARK    8  A    between atoms: N_6  and  C_9
REMARK                            x       y       z     vdW  Elec       q    Type
REMARK                         _______ _______ _______ _____ _____    ______ ____
ROOT
ATOM      1  C   UNL     1      63.291 -25.293  -6.700  0.00  0.00    -0.080 C 
ENDROOT
BRANCH   1   2
ATOM      2  N   UNL     1      63.110 -26.248  -6.467  0.00  0.00    +0.375 N 
ATOM      3  C   UNL     1      62.202 -26.177  -6.879  0.00  0.00    -0.101 C 
ATOM      4  C   UNL     1      62.930 -27.204  -6.234  0.00  0.00    -0.101 C 
ATOM      5  C   UNL     1      64.018 -26.319  -6.054  0.00  0.00    -0.101 C 
ENDBRANCH   1   2
BRANCH   1   6
ATOM      6  C   UNL     1      63.898 -24.339  -8.087  0.00  0.00    -0.021 C 
BRANCH   6   7
ATOM      7  S   UNL     1      63.283 -22.617  -7.968  0.00  0.00    -0.163 S 
BRANCH   7   9
ATOM      8  C   UNL     1      63.392 -23.372 -10.645  0.00  0.00    -0.056 C 
ATOM      9  C   UNL     1      63.249 -22.164  -9.737  0.00  0.00    -0.009 C 
ENDBRANCH   7   9
ENDBRANCH   6   7
ENDBRANCH   1   6
TORSDOF 4
ENDMDL
MODEL 5
REMARK VINA RESULT:    -3.686      1.288      1.396
REMARK INTER + INTRA:          -2.661
REMARK INTER:                  -4.173
REMARK INTRA:                   1.512
REMARK UNBOUND:                 1.457
REMARK  Name = cpd225.pdb
REMARK  8 active torsions:
REMARK  status: ('A' for Active; 'I' for Inactive)
REMARK    1  A    between atoms: C_1  and  C_2
REMARK    2  A    between atoms: C_2  and  S_3
REMARK    3  A    between atoms: S_3  and  C_4
REMARK    4  A    between atoms: C_4  and  C_5
REMARK    5  A    between atoms: C_5  and  N_6
REMARK    6  A    between atoms: N_6  and  C_7
REMARK    7  A    between atoms: N_6  and  C_8
REMARK    8  A    between atoms: N_6  and  C_9
REMARK                            x       y       z     vdW  Elec       q    Type
REMARK                         _______ _______ _______ _____ _____    ______ ____
ROOT
ATOM      1  C   UNL     1      47.047 -22.194 -40.350  0.00  0.00    -0.080 C 
ENDROOT
BRANCH   1   2
ATOM      2  N   UNL     1      47.707 -22.761 -40.844  0.00  0.00    +0.375 N 
ATOM      3  C   UNL     1      46.955 -23.259 -41.277  0.00  0.00    -0.101 C 
ATOM      4  C   UNL     1      48.366 -23.328 -41.338  0.00  0.00    -0.101 C 
ATOM      5  C   UNL     1      48.459 -22.263 -40.412  0.00  0.00    -0.101 C 
ENDBRANCH   1   2
BRANCH   1   6
ATOM      6  C   UNL     1      46.204 -20.629 -40.552  0.00  0.00    -0.021 C 
BRANCH   6   7
ATOM      7  S   UNL     1      44.409 -20.852 -40.254  0.00  0.00    -0.163 S 
BRANCH   7   9
ATOM      8  C   UNL     1      44.579 -20.095 -42.927  0.00  0.00    -0.056 C 
ATOM      9  C   UNL     1      43.812 -20.993 -41.974  0.00  0.00    -0.009 C 
ENDBRANCH   7   9
ENDBRANCH   6   7
ENDBRANCH   1   6
TORSDOF 4
ENDMDL
MODEL 6
REMARK VINA RESULT:    -3.670     21.143     22.189
REMARK INTER + INTRA:          -2.643
REMARK INTER:                  -4.220
REMARK INTRA:                   1.577
REMARK UNBOUND:                 1.457
REMARK  Name = cpd225.pdb
REMARK  8 active torsions:
REMARK  status: ('A' for Active; 'I' for Inactive)
REMARK    1  A    between atoms: C_1  and  C_2
REMARK    2  A    between atoms: C_2  and  S_3
REMARK    3  A    between atoms: S_3  and  C_4
REMARK    4  A    between atoms: C_4  and  C_5
REMARK    5  A    between atoms: C_5  and  N_6
REMARK    6  A    between atoms: N_6  and  C_7
REMARK    7  A    between atoms: N_6  and  C_8
REMARK    8  A    between atoms: N_6  and  C_9
REMARK                            x       y       z     vdW  Elec       q    Type
REMARK                         _______ _______ _______ _____ _____    ______ ____
ROOT
ATOM      1  C   UNL     1      46.426 -39.819 -29.065  0.00  0.00    -0.080 C 
ENDROOT
BRANCH   1   2
ATOM      2  N   UNL     1      45.654 -40.303 -29.477  0.00  0.00    +0.375 N 
ATOM      3  C   UNL     1      45.026 -39.827 -28.861  0.00  0.00    -0.101 C 
ATOM      4  C   UNL     1      44.882 -40.788 -29.888  0.00  0.00    -0.101 C 
ATOM      5  C   UNL     1      46.281 -40.780 -30.093  0.00  0.00    -0.101 C 
ENDBRANCH   1   2
BRANCH   1   6
ATOM      6  C   UNL     1      47.511 -38.449 -29.449  0.00  0.00    -0.021 C 
BRANCH   6   7
ATOM      7  S   UNL     1      49.191 -38.793 -28.800  0.00  0.00    -0.163 S 
BRANCH   7   9
ATOM      8  C   UNL     1      51.008 -38.635 -30.902  0.00  0.00    -0.056 C 
ATOM      9  C   UNL     1      50.191 -37.784 -29.947  0.00  0.00    -0.009 C 
ENDBRANCH   7   9
ENDBRANCH   6   7
ENDBRANCH   1   6
TORSDOF 4
ENDMDL
MODEL 7
REMARK VINA RESULT:    -3.602      1.975      2.719
REMARK INTER + INTRA:          -2.567
REMARK INTER:                  -4.064
REMARK INTRA:                   1.497
REMARK UNBOUND:                 1.457
REMARK  Name = cpd225.pdb
REMARK  8 active torsions:
REMARK  status: ('A' for Active; 'I' for Inactive)
REMARK    1  A    between atoms: C_1  and  C_2
REMARK    2  A    between atoms: C_2  and  S_3
REMARK    3  A    between atoms: S_3  and  C_4
REMARK    4  A    between atoms: C_4  and  C_5
REMARK    5  A    between atoms: C_5  and  N_6
REMARK    6  A    between atoms: N_6  and  C_7
REMARK    7  A    between atoms: N_6  and  C_8
REMARK    8  A    between atoms: N_6  and  C_9
REMARK                            x       y       z     vdW  Elec       q    Type
REMARK                         _______ _______ _______ _____ _____    ______ ____
ROOT
ATOM      1  C   UNL     1      47.149 -22.328 -41.587  0.00  0.00    -0.080 C 
ENDROOT
BRANCH   1   2
ATOM      2  N   UNL     1      47.685 -23.108 -41.909  0.00  0.00    +0.375 N 
ATOM      3  C   UNL     1      46.966 -23.330 -42.568  0.00  0.00    -0.101 C 
ATOM      4  C   UNL     1      48.221 -23.888 -42.232  0.00  0.00    -0.101 C 
ATOM      5  C   UNL     1      48.404 -22.885 -41.251  0.00  0.00    -0.101 C 
ENDBRANCH   1   2
BRANCH   1   6
ATOM      6  C   UNL     1      45.799 -21.999 -40.459  0.00  0.00    -0.021 C 
BRANCH   6   7
ATOM      7  S   UNL     1      45.864 -20.251 -39.911  0.00  0.00    -0.163 S 
BRANCH   7   9
ATOM      8  C   UNL     1      47.267 -19.132 -37.783  0.00  0.00    -0.056 C 
ATOM      9  C   UNL     1      46.721 -20.447 -38.311  0.00  0.00    -0.009 C 
ENDBRANCH   7   9
ENDBRANCH   6   7
ENDBRANCH   1   6
TORSDOF 4
ENDMDL
MODEL 8
REMARK VINA RESULT:    -3.581     12.397     13.290
REMARK INTER + INTRA:          -2.543
REMARK INTER:                  -4.020
REMARK INTRA:                   1.477
REMARK UNBOUND:                 1.457
REMARK  Name = cpd225.pdb
REMARK  8 active torsions:
REMARK  status: ('A' for Active; 'I' for Inactive)
REMARK    1  A    between atoms: C_1  and  C_2
REMARK    2  A    between atoms: C_2  and  S_3
REMARK    3  A    between atoms: S_3  and  C_4
REMARK    4  A    between atoms: C_4  and  C_5
REMARK    5  A    between atoms: C_5  and  N_6
REMARK    6  A    between atoms: N_6  and  C_7
REMARK    7  A    between atoms: N_6  and  C_8
REMARK    8  A    between atoms: N_6  and  C_9
REMARK                            x       y       z     vdW  Elec       q    Type
REMARK                         _______ _______ _______ _____ _____    ______ ____
ROOT
ATOM      1  C   UNL     1      56.293 -22.628 -49.806  0.00  0.00    -0.080 C 
ENDROOT
BRANCH   1   2
ATOM      2  N   UNL     1      55.945 -22.752 -50.735  0.00  0.00    +0.375 N 
ATOM      3  C   UNL     1      55.048 -22.996 -50.367  0.00  0.00    -0.101 C 
ATOM      4  C   UNL     1      55.598 -22.876 -51.665  0.00  0.00    -0.101 C 
ATOM      5  C   UNL     1      56.843 -22.508 -51.103  0.00  0.00    -0.101 C 
ENDBRANCH   1   2
BRANCH   1   6
ATOM      6  C   UNL     1      57.194 -23.559 -48.572  0.00  0.00    -0.021 C 
BRANCH   6   7
ATOM      7  S   UNL     1      56.939 -22.804 -46.921  0.00  0.00    -0.163 S 
BRANCH   7   9
ATOM      8  C   UNL     1      59.377 -21.916 -47.930  0.00  0.00    -0.056 C 
ATOM      9  C   UNL     1      58.591 -22.077 -46.642  0.00  0.00    -0.009 C 
ENDBRANCH   7   9
ENDBRANCH   6   7
ENDBRANCH   1   6
TORSDOF 4
ENDMDL
MODEL 9
REMARK VINA RESULT:    -3.577      1.619      1.785
REMARK INTER + INTRA:          -2.539
REMARK INTER:                  -3.986
REMARK INTRA:                   1.447
REMARK UNBOUND:                 1.457
REMARK  Name = cpd225.pdb
REMARK  8 active torsions:
REMARK  status: ('A' for Active; 'I' for Inactive)
REMARK    1  A    between atoms: C_1  and  C_2
REMARK    2  A    between atoms: C_2  and  S_3
REMARK    3  A    between atoms: S_3  and  C_4
REMARK    4  A    between atoms: C_4  and  C_5
REMARK    5  A    between atoms: C_5  and  N_6
REMARK    6  A    between atoms: N_6  and  C_7
REMARK    7  A    between atoms: N_6  and  C_8
REMARK    8  A    between atoms: N_6  and  C_9
REMARK                            x       y       z     vdW  Elec       q    Type
REMARK                         _______ _______ _______ _____ _____    ______ ____
ROOT
ATOM      1  C   UNL     1      46.913 -21.793 -41.850  0.00  0.00    -0.080 C 
ENDROOT
BRANCH   1   2
ATOM      2  N   UNL     1      47.507 -22.403 -41.325  0.00  0.00    +0.375 N 
ATOM      3  C   UNL     1      46.714 -22.957 -41.072  0.00  0.00    -0.101 C 
ATOM      4  C   UNL     1      48.101 -23.013 -40.801  0.00  0.00    -0.101 C 
ATOM      5  C   UNL     1      48.300 -21.848 -41.578  0.00  0.00    -0.101 C 
ENDBRANCH   1   2
BRANCH   1   6
ATOM      6  C   UNL     1      45.968 -20.294 -41.599  0.00  0.00    -0.021 C 
BRANCH   6   7
ATOM      7  S   UNL     1      44.591 -20.224 -42.808  0.00  0.00    -0.163 S 
BRANCH   7   9
ATOM      8  C   UNL     1      43.466 -21.147 -40.435  0.00  0.00    -0.056 C 
ATOM      9  C   UNL     1      43.353 -21.251 -41.945  0.00  0.00    -0.009 C 
ENDBRANCH   7   9
ENDBRANCH   6   7
ENDBRANCH   1   6
TORSDOF 4
ENDMDL
MODEL 10
REMARK VINA RESULT:    -3.523     36.534     37.853
REMARK INTER + INTRA:          -2.478
REMARK INTER:                  -3.929
REMARK INTRA:                   1.451
REMARK UNBOUND:                 1.457
REMARK  Name = cpd225.pdb
REMARK  8 active torsions:
REMARK  status: ('A' for Active; 'I' for Inactive)
REMARK    1  A    between atoms: C_1  and  C_2
REMARK    2  A    between atoms: C_2  and  S_3
REMARK    3  A    between atoms: S_3  and  C_4
REMARK    4  A    between atoms: C_4  and  C_5
REMARK    5  A    between atoms: C_5  and  N_6
REMARK    6  A    between atoms: N_6  and  C_7
REMARK    7  A    between atoms: N_6  and  C_8
REMARK    8  A    between atoms: N_6  and  C_9
REMARK                            x       y       z     vdW  Elec       q    Type
REMARK                         _______ _______ _______ _____ _____    ______ ____
ROOT
ATOM      1  C   UNL     1      63.052 -25.119  -8.920  0.00  0.00    -0.080 C 
ENDROOT
BRANCH   1   2
ATOM      2  N   UNL     1      63.125 -24.514  -9.713  0.00  0.00    +0.375 N 
ATOM      3  C   UNL     1      63.956 -24.112  -9.330  0.00  0.00    -0.101 C 
ATOM      4  C   UNL     1      63.198 -23.909 -10.507  0.00  0.00    -0.101 C 
ATOM      5  C   UNL     1      62.294 -24.917 -10.097  0.00  0.00    -0.101 C 
ENDBRANCH   1   2
BRANCH   1   6
ATOM      6  C   UNL     1      62.188 -25.185  -7.355  0.00  0.00    -0.021 C 
BRANCH   6   7
ATOM      7  S   UNL     1      63.148 -26.192  -6.162  0.00  0.00    -0.163 S 
BRANCH   7   9
ATOM      8  C   UNL     1      63.207 -23.519  -5.389  0.00  0.00    -0.056 C 
ATOM      9  C   UNL     1      63.837 -24.870  -5.107  0.00  0.00    -0.009 C 
ENDBRANCH   7   9
ENDBRANCH   6   7
ENDBRANCH   1   6
TORSDOF 4
ENDMDL
MODEL 11
REMARK VINA RESULT:    -3.498      1.640      1.959
REMARK INTER + INTRA:          -2.451
REMARK INTER:                  -3.881
REMARK INTRA:                   1.430
REMARK UNBOUND:                 1.457
REMARK  Name = cpd225.pdb
REMARK  8 active torsions:
REMARK  status: ('A' for Active; 'I' for Inactive)
REMARK    1  A    between atoms: C_1  and  C_2
REMARK    2  A    between atoms: C_2  and  S_3
REMARK    3  A    between atoms: S_3  and  C_4
REMARK    4  A    between atoms: C_4  and  C_5
REMARK    5  A    between atoms: C_5  and  N_6
REMARK    6  A    between atoms: N_6  and  C_7
REMARK    7  A    between atoms: N_6  and  C_8
REMARK    8  A    between atoms: N_6  and  C_9
REMARK                            x       y       z     vdW  Elec       q    Type
REMARK                         _______ _______ _______ _____ _____    ______ ____
ROOT
ATOM      1  C   UNL     1      46.305 -22.538 -40.958  0.00  0.00    -0.080 C 
ENDROOT
BRANCH   1   2
ATOM      2  N   UNL     1      47.246 -22.612 -40.629  0.00  0.00    +0.375 N 
ATOM      3  C   UNL     1      47.050 -21.936 -39.918  0.00  0.00    -0.101 C 
ATOM      4  C   UNL     1      48.187 -22.685 -40.299  0.00  0.00    -0.101 C 
ATOM      5  C   UNL     1      47.442 -23.287 -41.340  0.00  0.00    -0.101 C 
ENDBRANCH   1   2
BRANCH   1   6
ATOM      6  C   UNL     1      45.383 -21.645 -42.206  0.00  0.00    -0.021 C 
BRANCH   6   7
ATOM      7  S   UNL     1      43.704 -21.264 -41.577  0.00  0.00    -0.163 S 
BRANCH   7   9
ATOM      8  C   UNL     1      45.224 -18.933 -41.501  0.00  0.00    -0.056 C 
ATOM      9  C   UNL     1      43.980 -19.583 -40.921  0.00  0.00    -0.009 C 
ENDBRANCH   7   9
ENDBRANCH   6   7
ENDBRANCH   1   6
TORSDOF 4
ENDMDL
MODEL 12
REMARK VINA RESULT:    -3.493     38.431     39.714
REMARK INTER + INTRA:          -2.445
REMARK INTER:                  -3.895
REMARK INTRA:                   1.450
REMARK UNBOUND:                 1.457
REMARK  Name = cpd225.pdb
REMARK  8 active torsions:
REMARK  status: ('A' for Active; 'I' for Inactive)
REMARK    1  A    between atoms: C_1  and  C_2
REMARK    2  A    between atoms: C_2  and  S_3
REMARK    3  A    between atoms: S_3  and  C_4
REMARK    4  A    between atoms: C_4  and  C_5
REMARK    5  A    between atoms: C_5  and  N_6
REMARK    6  A    between atoms: N_6  and  C_7
REMARK    7  A    between atoms: N_6  and  C_8
REMARK    8  A    between atoms: N_6  and  C_9
REMARK                            x       y       z     vdW  Elec       q    Type
REMARK                         _______ _______ _______ _____ _____    ______ ____
ROOT
ATOM      1  C   UNL     1      63.158 -25.475  -6.921  0.00  0.00    -0.080 C 
ENDROOT
BRANCH   1   2
ATOM      2  N   UNL     1      62.645 -26.327  -7.025  0.00  0.00    +0.375 N 
ATOM      3  C   UNL     1      62.168 -25.944  -7.815  0.00  0.00    -0.101 C 
ATOM      4  C   UNL     1      62.133 -27.179  -7.128  0.00  0.00    -0.101 C 
ATOM      5  C   UNL     1      63.123 -26.710  -6.234  0.00  0.00    -0.101 C 
ENDBRANCH   1   2
BRANCH   1   6
ATOM      6  C   UNL     1      63.051 -23.945  -6.000  0.00  0.00    -0.021 C 
BRANCH   6   7
ATOM      7  S   UNL     1      64.668 -23.082  -6.046  0.00  0.00    -0.163 S 
BRANCH   7   9
ATOM      8  C   UNL     1      64.669 -24.452  -3.623  0.00  0.00    -0.056 C 
ATOM      9  C   UNL     1      65.126 -23.163  -4.281  0.00  0.00    -0.009 C 
ENDBRANCH   7   9
ENDBRANCH   6   7
ENDBRANCH   1   6
TORSDOF 4
ENDMDL
MODEL 13
REMARK VINA RESULT:    -3.406     19.480     20.417
REMARK INTER + INTRA:          -2.348
REMARK INTER:                  -3.887
REMARK INTRA:                   1.539
REMARK UNBOUND:                 1.457
REMARK  Name = cpd225.pdb
REMARK  8 active torsions:
REMARK  status: ('A' for Active; 'I' for Inactive)
REMARK    1  A    between atoms: C_1  and  C_2
REMARK    2  A    between atoms: C_2  and  S_3
REMARK    3  A    between atoms: S_3  and  C_4
REMARK    4  A    between atoms: C_4  and  C_5
REMARK    5  A    between atoms: C_5  and  N_6
REMARK    6  A    between atoms: N_6  and  C_7
REMARK    7  A    between atoms: N_6  and  C_8
REMARK    8  A    between atoms: N_6  and  C_9
REMARK                            x       y       z     vdW  Elec       q    Type
REMARK                         _______ _______ _______ _____ _____    ______ ____
ROOT
ATOM      1  C   UNL     1      38.277 -36.037 -30.552  0.00  0.00    -0.080 C 
ENDROOT
BRANCH   1   2
ATOM      2  N   UNL     1      37.303 -36.249 -30.628  0.00  0.00    +0.375 N 
ATOM      3  C   UNL     1      37.233 -35.644 -31.421  0.00  0.00    -0.101 C 
ATOM      4  C   UNL     1      36.328 -36.461 -30.704  0.00  0.00    -0.101 C 
ATOM      5  C   UNL     1      37.372 -36.854 -29.835  0.00  0.00    -0.101 C 
ENDBRANCH   1   2
BRANCH   1   6
ATOM      6  C   UNL     1      39.844 -36.701 -31.104  0.00  0.00    -0.021 C 
BRANCH   6   7
ATOM      7  S   UNL     1      41.064 -35.344 -31.272  0.00  0.00    -0.163 S 
BRANCH   7   9
ATOM      8  C   UNL     1      42.345 -37.779 -31.694  0.00  0.00    -0.056 C 
ATOM      9  C   UNL     1      42.606 -36.312 -31.405  0.00  0.00    -0.009 C 
ENDBRANCH   7   9
ENDBRANCH   6   7
ENDBRANCH   1   6
TORSDOF 4
ENDMDL
MODEL 14
REMARK VINA RESULT:    -3.256     16.573     18.361
REMARK INTER + INTRA:          -2.180
REMARK INTER:                  -3.612
REMARK INTRA:                   1.431
REMARK UNBOUND:                 1.457
REMARK  Name = cpd225.pdb
REMARK  8 active torsions:
REMARK  status: ('A' for Active; 'I' for Inactive)
REMARK    1  A    between atoms: C_1  and  C_2
REMARK    2  A    between atoms: C_2  and  S_3
REMARK    3  A    between atoms: S_3  and  C_4
REMARK    4  A    between atoms: C_4  and  C_5
REMARK    5  A    between atoms: C_5  and  N_6
REMARK    6  A    between atoms: N_6  and  C_7
REMARK    7  A    between atoms: N_6  and  C_8
REMARK    8  A    between atoms: N_6  and  C_9
REMARK                            x       y       z     vdW  Elec       q    Type
REMARK                         _______ _______ _______ _____ _____    ______ ____
ROOT
ATOM      1  C   UNL     1      55.037 -35.691 -46.682  0.00  0.00    -0.080 C 
ENDROOT
BRANCH   1   2
ATOM      2  N   UNL     1      54.277 -35.278 -46.180  0.00  0.00    +0.375 N 
ATOM      3  C   UNL     1      53.629 -35.826 -46.709  0.00  0.00    -0.101 C 
ATOM      4  C   UNL     1      53.518 -34.865 -45.677  0.00  0.00    -0.101 C 
ATOM      5  C   UNL     1      54.925 -34.730 -45.650  0.00  0.00    -0.101 C 
ENDBRANCH   1   2
BRANCH   1   6
ATOM      6  C   UNL     1      55.962 -35.410 -48.188  0.00  0.00    -0.021 C 
BRANCH   6   7
ATOM      7  S   UNL     1      56.975 -36.889 -48.574  0.00  0.00    -0.163 S 
BRANCH   7   9
ATOM      8  C   UNL     1      54.911 -38.719 -48.943  0.00  0.00    -0.056 C 
ATOM      9  C   UNL     1      55.836 -37.777 -49.691  0.00  0.00    -0.009 C 
ENDBRANCH   7   9
ENDBRANCH   6   7
ENDBRANCH   1   6
TORSDOF 4
ENDMDL
MODEL 15
REMARK VINA RESULT:    -3.227     16.537     17.757
REMARK INTER + INTRA:          -2.148
REMARK INTER:                  -3.724
REMARK INTRA:                   1.576
REMARK UNBOUND:                 1.457
REMARK  Name = cpd225.pdb
REMARK  8 active torsions:
REMARK  status: ('A' for Active; 'I' for Inactive)
REMARK    1  A    between atoms: C_1  and  C_2
REMARK    2  A    between atoms: C_2  and  S_3
REMARK    3  A    between atoms: S_3  and  C_4
REMARK    4  A    between atoms: C_4  and  C_5
REMARK    5  A    between atoms: C_5  and  N_6
REMARK    6  A    between atoms: N_6  and  C_7
REMARK    7  A    between atoms: N_6  and  C_8
REMARK    8  A    between atoms: N_6  and  C_9
REMARK                            x       y       z     vdW  Elec       q    Type
REMARK                         _______ _______ _______ _____ _____    ______ ____
ROOT
ATOM      1  C   UNL     1      55.078 -35.655 -46.712  0.00  0.00    -0.080 C 
ENDROOT
BRANCH   1   2
ATOM      2  N   UNL     1      54.287 -35.278 -46.230  0.00  0.00    +0.375 N 
ATOM      3  C   UNL     1      54.899 -34.764 -45.628  0.00  0.00    -0.101 C 
ATOM      4  C   UNL     1      53.496 -34.901 -45.748  0.00  0.00    -0.101 C 
ATOM      5  C   UNL     1      53.676 -35.792 -46.831  0.00  0.00    -0.101 C 
ENDBRANCH   1   2
BRANCH   1   6
ATOM      6  C   UNL     1      56.304 -35.125 -47.903  0.00  0.00    -0.021 C 
BRANCH   6   7
ATOM      7  S   UNL     1      56.407 -36.346 -49.267  0.00  0.00    -0.163 S 
BRANCH   7   9
ATOM      8  C   UNL     1      56.077 -33.782 -50.300  0.00  0.00    -0.056 C 
ATOM      9  C   UNL     1      56.278 -35.231 -50.707  0.00  0.00    -0.009 C 
ENDBRANCH   7   9
ENDBRANCH   6   7
ENDBRANCH   1   6
TORSDOF 4
ENDMDL
MODEL 16
REMARK VINA RESULT:    -3.222      2.832      3.347
REMARK INTER + INTRA:          -2.142
REMARK INTER:                  -3.649
REMARK INTRA:                   1.506
REMARK UNBOUND:                 1.457
REMARK  Name = cpd225.pdb
REMARK  8 active torsions:
REMARK  status: ('A' for Active; 'I' for Inactive)
REMARK    1  A    between atoms: C_1  and  C_2
REMARK    2  A    between atoms: C_2  and  S_3
REMARK    3  A    between atoms: S_3  and  C_4
REMARK    4  A    between atoms: C_4  and  C_5
REMARK    5  A    between atoms: C_5  and  N_6
REMARK    6  A    between atoms: N_6  and  C_7
REMARK    7  A    between atoms: N_6  and  C_8
REMARK    8  A    between atoms: N_6  and  C_9
REMARK                            x       y       z     vdW  Elec       q    Type
REMARK                         _______ _______ _______ _____ _____    ______ ____
ROOT
ATOM      1  C   UNL     1      47.383 -21.779 -40.447  0.00  0.00    -0.080 C 
ENDROOT
BRANCH   1   2
ATOM      2  N   UNL     1      47.561 -22.287 -41.290  0.00  0.00    +0.375 N 
ATOM      3  C   UNL     1      46.882 -22.969 -41.022  0.00  0.00    -0.101 C 
ATOM      4  C   UNL     1      47.739 -22.795 -42.133  0.00  0.00    -0.101 C 
ATOM      5  C   UNL     1      48.241 -21.604 -41.558  0.00  0.00    -0.101 C 
ENDBRANCH   1   2
BRANCH   1   6
ATOM      6  C   UNL     1      46.314 -20.465 -39.870  0.00  0.00    -0.021 C 
BRANCH   6   7
ATOM      7  S   UNL     1      46.168 -20.545 -38.045  0.00  0.00    -0.163 S 
BRANCH   7   9
ATOM      8  C   UNL     1      47.124 -18.747 -36.147  0.00  0.00    -0.056 C 
ATOM      9  C   UNL     1      47.340 -19.228 -37.570  0.00  0.00    -0.009 C 
ENDBRANCH   7   9
ENDBRANCH   6   7
ENDBRANCH   1   6
TORSDOF 4
ENDMDL
MODEL 17
REMARK VINA RESULT:    -3.134     12.197     13.217
REMARK INTER + INTRA:          -2.043
REMARK INTER:                  -3.748
REMARK INTRA:                   1.704
REMARK UNBOUND:                 1.457
REMARK  Name = cpd225.pdb
REMARK  8 active torsions:
REMARK  status: ('A' for Active; 'I' for Inactive)
REMARK    1  A    between atoms: C_1  and  C_2
REMARK    2  A    between atoms: C_2  and  S_3
REMARK    3  A    between atoms: S_3  and  C_4
REMARK    4  A    between atoms: C_4  and  C_5
REMARK    5  A    between atoms: C_5  and  N_6
REMARK    6  A    between atoms: N_6  and  C_7
REMARK    7  A    between atoms: N_6  and  C_8
REMARK    8  A    between atoms: N_6  and  C_9
REMARK                            x       y       z     vdW  Elec       q    Type
REMARK                         _______ _______ _______ _____ _____    ______ ____
ROOT
ATOM      1  C   UNL     1      57.111 -23.224 -48.414  0.00  0.00    -0.080 C 
ENDROOT
BRANCH   1   2
ATOM      2  N   UNL     1      56.626 -23.090 -47.550  0.00  0.00    +0.375 N 
ATOM      3  C   UNL     1      56.161 -23.967 -47.676  0.00  0.00    -0.101 C 
ATOM      4  C   UNL     1      56.140 -22.957 -46.686  0.00  0.00    -0.101 C 
ATOM      5  C   UNL     1      57.090 -22.214 -47.424  0.00  0.00    -0.101 C 
ENDBRANCH   1   2
BRANCH   1   6
ATOM      6  C   UNL     1      57.306 -22.394 -49.988  0.00  0.00    -0.021 C 
BRANCH   6   7
ATOM      7  S   UNL     1      56.106 -23.073 -51.196  0.00  0.00    -0.163 S 
BRANCH   7   9
ATOM      8  C   UNL     1      57.620 -21.517 -52.938  0.00  0.00    -0.056 C 
ATOM      9  C   UNL     1      57.077 -22.920 -52.735  0.00  0.00    -0.009 C 
ENDBRANCH   7   9
ENDBRANCH   6   7
ENDBRANCH   1   6
TORSDOF 4
ENDMDL
MODEL 18
REMARK VINA RESULT:    -3.103     19.715     20.947
REMARK INTER + INTRA:          -2.010
REMARK INTER:                  -3.495
REMARK INTRA:                   1.485
REMARK UNBOUND:                 1.457
REMARK  Name = cpd225.pdb
REMARK  8 active torsions:
REMARK  status: ('A' for Active; 'I' for Inactive)
REMARK    1  A    between atoms: C_1  and  C_2
REMARK    2  A    between atoms: C_2  and  S_3
REMARK    3  A    between atoms: S_3  and  C_4
REMARK    4  A    between atoms: C_4  and  C_5
REMARK    5  A    between atoms: C_5  and  N_6
REMARK    6  A    between atoms: N_6  and  C_7
REMARK    7  A    between atoms: N_6  and  C_8
REMARK    8  A    between atoms: N_6  and  C_9
REMARK                            x       y       z     vdW  Elec       q    Type
REMARK                         _______ _______ _______ _____ _____    ______ ____
ROOT
ATOM      1  C   UNL     1      61.517 -13.381 -30.501  0.00  0.00    -0.080 C 
ENDROOT
BRANCH   1   2
ATOM      2  N   UNL     1      60.561 -13.569 -30.728  0.00  0.00    +0.375 N 
ATOM      3  C   UNL     1      60.854 -14.110 -31.516  0.00  0.00    -0.101 C 
ATOM      4  C   UNL     1      59.605 -13.757 -30.955  0.00  0.00    -0.101 C 
ATOM      5  C   UNL     1      60.267 -13.027 -29.941  0.00  0.00    -0.101 C 
ENDBRANCH   1   2
BRANCH   1   6
ATOM      6  C   UNL     1      62.812 -14.061 -29.472  0.00  0.00    -0.021 C 
BRANCH   6   7
ATOM      7  S   UNL     1      64.448 -13.540 -30.114  0.00  0.00    -0.163 S 
BRANCH   7   9
ATOM      8  C   UNL     1      64.364 -16.252 -30.733  0.00  0.00    -0.056 C 
ATOM      9  C   UNL     1      65.284 -15.160 -30.219  0.00  0.00    -0.009 C 
ENDBRANCH   7   9
ENDBRANCH   6   7
ENDBRANCH   1   6
TORSDOF 4
ENDMDL
MODEL 19
REMARK VINA RESULT:    -3.058     20.132     20.913
REMARK INTER + INTRA:          -1.959
REMARK INTER:                  -3.585
REMARK INTRA:                   1.627
REMARK UNBOUND:                 1.457
REMARK  Name = cpd225.pdb
REMARK  8 active torsions:
REMARK  status: ('A' for Active; 'I' for Inactive)
REMARK    1  A    between atoms: C_1  and  C_2
REMARK    2  A    between atoms: C_2  and  S_3
REMARK    3  A    between atoms: S_3  and  C_4
REMARK    4  A    between atoms: C_4  and  C_5
REMARK    5  A    between atoms: C_5  and  N_6
REMARK    6  A    between atoms: N_6  and  C_7
REMARK    7  A    between atoms: N_6  and  C_8
REMARK    8  A    between atoms: N_6  and  C_9
REMARK                            x       y       z     vdW  Elec       q    Type
REMARK                         _______ _______ _______ _____ _____    ______ ____
ROOT
ATOM      1  C   UNL     1      39.911 -36.504 -30.801  0.00  0.00    -0.080 C 
ENDROOT
BRANCH   1   2
ATOM      2  N   UNL     1      40.447 -36.265 -31.611  0.00  0.00    +0.375 N 
ATOM      3  C   UNL     1      39.887 -35.447 -31.740  0.00  0.00    -0.101 C 
ATOM      4  C   UNL     1      40.983 -36.026 -32.420  0.00  0.00    -0.101 C 
ATOM      5  C   UNL     1      41.008 -37.083 -31.481  0.00  0.00    -0.101 C 
ENDBRANCH   1   2
BRANCH   1   6
ATOM      6  C   UNL     1      38.222 -36.918 -30.382  0.00  0.00    -0.021 C 
BRANCH   6   7
ATOM      7  S   UNL     1      38.200 -37.987 -28.892  0.00  0.00    -0.163 S 
BRANCH   7   9
ATOM      8  C   UNL     1      36.023 -38.700 -30.473  0.00  0.00    -0.056 C 
ATOM      9  C   UNL     1      36.532 -38.715 -29.044  0.00  0.00    -0.009 C 
ENDBRANCH   7   9
ENDBRANCH   6   7
ENDBRANCH   1   6
TORSDOF 4
ENDMDL
MODEL 20
REMARK VINA RESULT:    -3.029      3.761      4.555
REMARK INTER + INTRA:          -1.927
REMARK INTER:                  -3.456
REMARK INTRA:                   1.529
REMARK UNBOUND:                 1.457
REMARK  Name = cpd225.pdb
REMARK  8 active torsions:
REMARK  status: ('A' for Active; 'I' for Inactive)
REMARK    1  A    between atoms: C_1  and  C_2
REMARK    2  A    between atoms: C_2  and  S_3
REMARK    3  A    between atoms: S_3  and  C_4
REMARK    4  A    between atoms: C_4  and  C_5
REMARK    5  A    between atoms: C_5  and  N_6
REMARK    6  A    between atoms: N_6  and  C_7
REMARK    7  A    between atoms: N_6  and  C_8
REMARK    8  A    between atoms: N_6  and  C_9
REMARK                            x       y       z     vdW  Elec       q    Type
REMARK                         _______ _______ _______ _____ _____    ______ ____
ROOT
ATOM      1  C   UNL     1      46.956 -20.748 -39.582  0.00  0.00    -0.080 C 
ENDROOT
BRANCH   1   2
ATOM      2  N   UNL     1      46.691 -21.247 -40.408  0.00  0.00    +0.375 N 
ATOM      3  C   UNL     1      46.691 -22.103 -39.890  0.00  0.00    -0.101 C 
ATOM      4  C   UNL     1      46.426 -21.746 -41.233  0.00  0.00    -0.101 C 
ATOM      5  C   UNL     1      46.692 -20.391 -40.925  0.00  0.00    -0.101 C 
ENDBRANCH   1   2
BRANCH   1   6
ATOM      6  C   UNL     1      46.192 -20.099 -38.100  0.00  0.00    -0.021 C 
BRANCH   6   7
ATOM      7  S   UNL     1      47.225 -18.750 -37.413  0.00  0.00    -0.163 S 
BRANCH   7   9
ATOM      8  C   UNL     1      48.824 -18.857 -35.138  0.00  0.00    -0.056 C 
ATOM      9  C   UNL     1      47.547 -19.410 -35.742  0.00  0.00    -0.009 C 
ENDBRANCH   7   9
ENDBRANCH   6   7
ENDBRANCH   1   6
TORSDOF 4
ENDMDL
