MODEL 1
REMARK VINA RESULT:    -8.897      0.000      0.000
REMARK INTER + INTRA:         -11.628
REMARK INTER:                 -10.977
REMARK INTRA:                  -0.651
REMARK UNBOUND:                -0.651
REMARK  Name = cpd193.pdb
REMARK  9 active torsions:
REMARK  status: ('A' for Active; 'I' for Inactive)
REMARK    1  A    between atoms: C_1  and  C_2
REMARK    2  A    between atoms: C_2  and  C_3
REMARK    3  A    between atoms: C_2  and  N_32
REMARK    4  A    between atoms: C_13  and  N_14
REMARK    5  A    between atoms: C_15  and  C_17
REMARK    6  A    between atoms: C_25  and  C_26
REMARK    7  A    between atoms: C_30  and  C_31
REMARK    8  A    between atoms: N_32  and  C_33
REMARK    9  A    between atoms: N_32  and  C_34
REMARK                            x       y       z     vdW  Elec       q    Type
REMARK                         _______ _______ _______ _____ _____    ______ ____
ROOT
ATOM      1  C   UNL     1      28.317 -31.985 -31.245  0.00  0.00    -0.020 C 
ATOM      2  C   UNL     1      28.532 -32.146 -32.781  0.00  0.00    -0.048 C 
ATOM      3  C   UNL     1      29.430 -33.361 -32.974  0.00  0.00    -0.049 C 
ATOM      4  C   UNL     1      30.384 -33.198 -31.804  0.00  0.00    -0.032 C 
ATOM      5  C   UNL     1      31.378 -34.340 -31.535  0.00  0.00    -0.034 C 
ATOM      6  C   UNL     1      32.396 -34.453 -32.669  0.00  0.00    -0.049 C 
ATOM      7  C   UNL     1      33.375 -35.599 -32.463  0.00  0.00    -0.042 C 
ATOM      8  C   UNL     1      33.746 -35.880 -31.000  0.00  0.00    +0.029 C 
ATOM      9  C   UNL     1      35.186 -36.378 -30.975  0.00  0.00    +0.180 C 
ATOM     10  O   UNL     1      35.473 -37.559 -31.186  0.00  0.00    -0.290 OA
ATOM     11  C   UNL     1      36.296 -35.379 -30.792  0.00  0.00    +0.073 C 
ATOM     12  C   UNL     1      35.979 -34.103 -30.535  0.00  0.00    -0.059 C 
ATOM     13  C   UNL     1      34.583 -33.583 -30.334  0.00  0.00    -0.026 C 
ATOM     14  C   UNL     1      33.535 -34.688 -30.035  0.00  0.00    -0.016 C 
ATOM     15  C   UNL     1      33.760 -35.181 -28.571  0.00  0.00    -0.058 C 
ATOM     16  C   UNL     1      32.045 -34.180 -30.130  0.00  0.00    -0.032 C 
ATOM     17  C   UNL     1      31.824 -32.768 -29.538  0.00  0.00    -0.049 C 
ATOM     18  C   UNL     1      30.359 -32.274 -29.514  0.00  0.00    -0.047 C 
ATOM     19  C   UNL     1      29.457 -32.880 -30.604  0.00  0.00    -0.025 C 
ATOM     20  C   UNL     1      28.754 -34.149 -30.042  0.00  0.00    -0.059 C 
ENDROOT
BRANCH  11  21
ATOM     21  N   UNL     1      37.566 -35.899 -30.931  0.00  0.00    -0.279 N 
ATOM     22  C   UNL     1      38.648 -35.374 -31.610  0.00  0.00    +0.248 C 
ATOM     23  O   UNL     1      38.677 -34.299 -32.198  0.00  0.00    -0.270 OA
ATOM     24  H   UNL     1      37.723 -36.762 -30.485  0.00  0.00    +0.000 HD
BRANCH  22  25
ATOM     25  C   UNL     1      39.887 -36.202 -31.567  0.00  0.00    +0.037 A 
ATOM     26  C   UNL     1      40.225 -36.980 -30.451  0.00  0.00    -0.050 A 
ATOM     27  C   UNL     1      41.399 -37.738 -30.458  0.00  0.00    -0.061 A 
ATOM     28  C   UNL     1      42.232 -37.729 -31.577  0.00  0.00    -0.062 A 
ATOM     29  C   UNL     1      41.891 -36.970 -32.696  0.00  0.00    -0.061 A 
ATOM     30  C   UNL     1      40.720 -36.212 -32.695  0.00  0.00    -0.050 A 
ENDBRANCH  22  25
ENDBRANCH  11  21
BRANCH   1  32
ATOM     31  C   UNL     1      27.594 -29.645 -31.994  0.00  0.00    -0.049 C 
ATOM     32  C   UNL     1      28.164 -30.483 -30.826  0.00  0.00    +0.010 C 
BRANCH  32  33
ATOM     33  N   UNL     1      27.278 -30.134 -29.703  0.00  0.00    -0.305 N 
ATOM     34  C   UNL     1      26.355 -31.128 -29.198  0.00  0.00    -0.013 C 
ATOM     35  C   UNL     1      27.880 -29.323 -28.658  0.00  0.00    -0.013 C 
ATOM     36  H   UNL     1      26.643 -29.522 -30.214  0.00  0.00    +0.000 HD
ENDBRANCH  32  33
ENDBRANCH   1  32
TORSDOF 4
ENDMDL
MODEL 2
REMARK VINA RESULT:    -8.298      1.484      3.089
REMARK INTER + INTRA:         -10.889
REMARK INTER:                 -10.377
REMARK INTRA:                  -0.513
REMARK UNBOUND:                -0.651
REMARK  Name = cpd193.pdb
REMARK  9 active torsions:
REMARK  status: ('A' for Active; 'I' for Inactive)
REMARK    1  A    between atoms: C_1  and  C_2
REMARK    2  A    between atoms: C_2  and  C_3
REMARK    3  A    between atoms: C_2  and  N_32
REMARK    4  A    between atoms: C_13  and  N_14
REMARK    5  A    between atoms: C_15  and  C_17
REMARK    6  A    between atoms: C_25  and  C_26
REMARK    7  A    between atoms: C_30  and  C_31
REMARK    8  A    between atoms: N_32  and  C_33
REMARK    9  A    between atoms: N_32  and  C_34
REMARK                            x       y       z     vdW  Elec       q    Type
REMARK                         _______ _______ _______ _____ _____    ______ ____
ROOT
ATOM      1  C   UNL     1      28.001 -31.903 -29.592  0.00  0.00    -0.020 C 
ATOM      2  C   UNL     1      28.593 -31.451 -28.223  0.00  0.00    -0.048 C 
ATOM      3  C   UNL     1      30.080 -31.207 -28.446  0.00  0.00    -0.049 C 
ATOM      4  C   UNL     1      30.415 -32.342 -29.396  0.00  0.00    -0.032 C 
ATOM      5  C   UNL     1      31.825 -32.361 -30.011  0.00  0.00    -0.034 C 
ATOM      6  C   UNL     1      32.881 -32.619 -28.938  0.00  0.00    -0.049 C 
ATOM      7  C   UNL     1      34.297 -32.604 -29.497  0.00  0.00    -0.042 C 
ATOM      8  C   UNL     1      34.435 -33.144 -30.927  0.00  0.00    +0.029 C 
ATOM      9  C   UNL     1      35.800 -33.811 -31.040  0.00  0.00    +0.180 C 
ATOM     10  O   UNL     1      36.825 -33.166 -31.275  0.00  0.00    -0.290 OA
ATOM     11  C   UNL     1      35.915 -35.283 -30.752  0.00  0.00    +0.073 C 
ATOM     12  C   UNL     1      34.796 -35.985 -30.525  0.00  0.00    -0.059 C 
ATOM     13  C   UNL     1      33.400 -35.435 -30.609  0.00  0.00    -0.026 C 
ATOM     14  C   UNL     1      33.295 -34.091 -31.377  0.00  0.00    -0.016 C 
ATOM     15  C   UNL     1      33.466 -34.393 -32.899  0.00  0.00    -0.058 C 
ATOM     16  C   UNL     1      31.902 -33.374 -31.199  0.00  0.00    -0.032 C 
ATOM     17  C   UNL     1      30.693 -34.338 -31.223  0.00  0.00    -0.049 C 
ATOM     18  C   UNL     1      29.300 -33.668 -31.157  0.00  0.00    -0.047 C 
ATOM     19  C   UNL     1      29.275 -32.303 -30.445  0.00  0.00    -0.025 C 
ATOM     20  C   UNL     1      29.473 -31.172 -31.495  0.00  0.00    -0.059 C 
ENDROOT
BRANCH  11  21
ATOM     21  N   UNL     1      37.207 -35.767 -30.734  0.00  0.00    -0.279 N 
ATOM     22  C   UNL     1      37.696 -36.908 -30.131  0.00  0.00    +0.248 C 
ATOM     23  O   UNL     1      37.037 -37.737 -29.515  0.00  0.00    -0.270 OA
ATOM     24  H   UNL     1      37.871 -35.224 -31.217  0.00  0.00    +0.000 HD
BRANCH  22  25
ATOM     25  C   UNL     1      39.160 -37.138 -30.301  0.00  0.00    +0.037 A 
ATOM     26  C   UNL     1      39.893 -36.538 -31.334  0.00  0.00    -0.050 A 
ATOM     27  C   UNL     1      41.263 -36.786 -31.453  0.00  0.00    -0.061 A 
ATOM     28  C   UNL     1      41.905 -37.624 -30.541  0.00  0.00    -0.062 A 
ATOM     29  C   UNL     1      41.183 -38.210 -29.501  0.00  0.00    -0.061 A 
ATOM     30  C   UNL     1      39.815 -37.965 -29.377  0.00  0.00    -0.050 A 
ENDBRANCH  22  25
ENDBRANCH  11  21
BRANCH   1  32
ATOM     31  C   UNL     1      26.939 -33.667 -28.070  0.00  0.00    -0.049 C 
ATOM     32  C   UNL     1      26.820 -32.917 -29.417  0.00  0.00    +0.010 C 
BRANCH  32  33
ATOM     33  N   UNL     1      25.436 -32.414 -29.397  0.00  0.00    -0.305 N 
ATOM     34  C   UNL     1      24.795 -32.162 -28.124  0.00  0.00    -0.013 C 
ATOM     35  C   UNL     1      25.113 -31.425 -30.411  0.00  0.00    -0.013 C 
ATOM     36  H   UNL     1      24.973 -33.278 -29.679  0.00  0.00    +0.000 HD
ENDBRANCH  32  33
ENDBRANCH   1  32
TORSDOF 4
ENDMDL
MODEL 3
REMARK VINA RESULT:    -7.954      1.564      2.277
REMARK INTER + INTRA:         -10.464
REMARK INTER:                  -9.808
REMARK INTRA:                  -0.657
REMARK UNBOUND:                -0.651
REMARK  Name = cpd193.pdb
REMARK  9 active torsions:
REMARK  status: ('A' for Active; 'I' for Inactive)
REMARK    1  A    between atoms: C_1  and  C_2
REMARK    2  A    between atoms: C_2  and  C_3
REMARK    3  A    between atoms: C_2  and  N_32
REMARK    4  A    between atoms: C_13  and  N_14
REMARK    5  A    between atoms: C_15  and  C_17
REMARK    6  A    between atoms: C_25  and  C_26
REMARK    7  A    between atoms: C_30  and  C_31
REMARK    8  A    between atoms: N_32  and  C_33
REMARK    9  A    between atoms: N_32  and  C_34
REMARK                            x       y       z     vdW  Elec       q    Type
REMARK                         _______ _______ _______ _____ _____    ______ ____
ROOT
ATOM      1  C   UNL     1      27.394 -31.490 -32.777  0.00  0.00    -0.020 C 
ATOM      2  C   UNL     1      27.557 -32.440 -34.002  0.00  0.00    -0.048 C 
ATOM      3  C   UNL     1      28.340 -33.653 -33.516  0.00  0.00    -0.049 C 
ATOM      4  C   UNL     1      29.333 -32.992 -32.578  0.00  0.00    -0.032 C 
ATOM      5  C   UNL     1      30.231 -33.911 -31.732  0.00  0.00    -0.034 C 
ATOM      6  C   UNL     1      31.206 -34.683 -32.619  0.00  0.00    -0.049 C 
ATOM      7  C   UNL     1      32.087 -35.637 -31.826  0.00  0.00    -0.042 C 
ATOM      8  C   UNL     1      32.468 -35.152 -30.420  0.00  0.00    +0.029 C 
ATOM      9  C   UNL     1      33.860 -35.688 -30.108  0.00  0.00    +0.180 C 
ATOM     10  O   UNL     1      34.038 -36.828 -29.669  0.00  0.00    -0.290 OA
ATOM     11  C   UNL     1      35.056 -34.840 -30.441  0.00  0.00    +0.073 C 
ATOM     12  C   UNL     1      34.858 -33.593 -30.889  0.00  0.00    -0.059 C 
ATOM     13  C   UNL     1      33.518 -32.925 -31.020  0.00  0.00    -0.026 C 
ATOM     14  C   UNL     1      32.386 -33.619 -30.218  0.00  0.00    -0.016 C 
ATOM     15  C   UNL     1      32.604 -33.301 -28.705  0.00  0.00    -0.058 C 
ATOM     16  C   UNL     1      30.943 -33.106 -30.597  0.00  0.00    -0.032 C 
ATOM     17  C   UNL     1      30.861 -31.579 -30.827  0.00  0.00    -0.049 C 
ATOM     18  C   UNL     1      29.446 -31.017 -31.098  0.00  0.00    -0.047 C 
ATOM     19  C   UNL     1      28.467 -32.019 -31.738  0.00  0.00    -0.025 C 
ATOM     20  C   UNL     1      27.671 -32.747 -30.617  0.00  0.00    -0.059 C 
ENDROOT
BRANCH  11  21
ATOM     21  N   UNL     1      36.273 -35.465 -30.261  0.00  0.00    -0.279 N 
ATOM     22  C   UNL     1      37.361 -35.506 -31.110  0.00  0.00    +0.248 C 
ATOM     23  O   UNL     1      37.449 -34.943 -32.195  0.00  0.00    -0.270 OA
ATOM     24  H   UNL     1      36.380 -35.948 -29.410  0.00  0.00    +0.000 HD
BRANCH  22  25
ATOM     25  C   UNL     1      38.530 -36.283 -30.607  0.00  0.00    +0.037 A 
ATOM     26  C   UNL     1      39.818 -36.117 -31.135  0.00  0.00    -0.050 A 
ATOM     27  C   UNL     1      40.881 -36.870 -30.632  0.00  0.00    -0.061 A 
ATOM     28  C   UNL     1      40.666 -37.782 -29.599  0.00  0.00    -0.062 A 
ATOM     29  C   UNL     1      39.390 -37.939 -29.059  0.00  0.00    -0.061 A 
ATOM     30  C   UNL     1      38.325 -37.189 -29.557  0.00  0.00    -0.050 A 
ENDBRANCH  22  25
ENDBRANCH  11  21
BRANCH   1  32
ATOM     31  C   UNL     1      27.033 -29.837 -34.699  0.00  0.00    -0.049 C 
ATOM     32  C   UNL     1      27.383 -29.981 -33.200  0.00  0.00    +0.010 C 
BRANCH  32  33
ATOM     33  N   UNL     1      26.440 -29.057 -32.548  0.00  0.00    -0.305 N 
ATOM     34  C   UNL     1      25.862 -27.978 -33.320  0.00  0.00    -0.013 C 
ATOM     35  C   UNL     1      25.504 -29.667 -31.619  0.00  0.00    -0.013 C 
ATOM     36  H   UNL     1      27.118 -28.548 -31.981  0.00  0.00    +0.000 HD
ENDBRANCH  32  33
ENDBRANCH   1  32
TORSDOF 4
ENDMDL
MODEL 4
REMARK VINA RESULT:    -7.951      1.658      2.786
REMARK INTER + INTRA:         -10.461
REMARK INTER:                  -9.686
REMARK INTRA:                  -0.775
REMARK UNBOUND:                -0.651
REMARK  Name = cpd193.pdb
REMARK  9 active torsions:
REMARK  status: ('A' for Active; 'I' for Inactive)
REMARK    1  A    between atoms: C_1  and  C_2
REMARK    2  A    between atoms: C_2  and  C_3
REMARK    3  A    between atoms: C_2  and  N_32
REMARK    4  A    between atoms: C_13  and  N_14
REMARK    5  A    between atoms: C_15  and  C_17
REMARK    6  A    between atoms: C_25  and  C_26
REMARK    7  A    between atoms: C_30  and  C_31
REMARK    8  A    between atoms: N_32  and  C_33
REMARK    9  A    between atoms: N_32  and  C_34
REMARK                            x       y       z     vdW  Elec       q    Type
REMARK                         _______ _______ _______ _____ _____    ______ ____
ROOT
ATOM      1  C   UNL     1      27.654 -30.826 -29.852  0.00  0.00    -0.020 C 
ATOM      2  C   UNL     1      28.618 -29.605 -29.947  0.00  0.00    -0.048 C 
ATOM      3  C   UNL     1      29.856 -30.080 -30.696  0.00  0.00    -0.049 C 
ATOM      4  C   UNL     1      30.010 -31.481 -30.131  0.00  0.00    -0.032 C 
ATOM      5  C   UNL     1      31.080 -32.388 -30.763  0.00  0.00    -0.034 C 
ATOM      6  C   UNL     1      32.482 -31.852 -30.478  0.00  0.00    -0.049 C 
ATOM      7  C   UNL     1      33.572 -32.698 -31.121  0.00  0.00    -0.042 C 
ATOM      8  C   UNL     1      33.269 -34.201 -31.192  0.00  0.00    +0.029 C 
ATOM      9  C   UNL     1      34.592 -34.946 -31.059  0.00  0.00    +0.180 C 
ATOM     10  O   UNL     1      35.334 -35.137 -32.026  0.00  0.00    -0.290 OA
ATOM     11  C   UNL     1      35.053 -35.369 -29.692  0.00  0.00    +0.073 C 
ATOM     12  C   UNL     1      34.231 -35.186 -28.649  0.00  0.00    -0.059 C 
ATOM     13  C   UNL     1      32.828 -34.653 -28.738  0.00  0.00    -0.026 C 
ATOM     14  C   UNL     1      32.223 -34.703 -30.166  0.00  0.00    -0.016 C 
ATOM     15  C   UNL     1      31.876 -36.190 -30.490  0.00  0.00    -0.058 C 
ATOM     16  C   UNL     1      30.890 -33.873 -30.312  0.00  0.00    -0.032 C 
ATOM     17  C   UNL     1      29.939 -33.996 -29.098  0.00  0.00    -0.049 C 
ATOM     18  C   UNL     1      28.574 -33.283 -29.242  0.00  0.00    -0.047 C 
ATOM     19  C   UNL     1      28.578 -32.069 -30.189  0.00  0.00    -0.025 C 
ATOM     20  C   UNL     1      28.183 -32.533 -31.621  0.00  0.00    -0.059 C 
ENDROOT
BRANCH  11  21
ATOM     21  N   UNL     1      36.324 -35.902 -29.652  0.00  0.00    -0.279 N 
ATOM     22  C   UNL     1      36.706 -37.228 -29.599  0.00  0.00    +0.248 C 
ATOM     23  O   UNL     1      35.954 -38.196 -29.615  0.00  0.00    -0.270 OA
ATOM     24  H   UNL     1      37.060 -35.248 -29.664  0.00  0.00    +0.000 HD
BRANCH  22  25
ATOM     25  C   UNL     1      38.178 -37.464 -29.561  0.00  0.00    +0.037 A 
ATOM     26  C   UNL     1      38.785 -38.218 -28.548  0.00  0.00    -0.050 A 
ATOM     27  C   UNL     1      40.170 -38.410 -28.554  0.00  0.00    -0.061 A 
ATOM     28  C   UNL     1      40.948 -37.857 -29.572  0.00  0.00    -0.062 A 
ATOM     29  C   UNL     1      40.346 -37.120 -30.591  0.00  0.00    -0.061 A 
ATOM     30  C   UNL     1      38.964 -36.927 -30.590  0.00  0.00    -0.050 A 
ENDBRANCH  22  25
ENDBRANCH  11  21
BRANCH   1  32
ATOM     31  C   UNL     1      27.568 -30.067 -27.408  0.00  0.00    -0.049 C 
ATOM     32  C   UNL     1      26.809 -30.807 -28.533  0.00  0.00    +0.010 C 
BRANCH  32  33
ATOM     33  N   UNL     1      25.490 -30.153 -28.531  0.00  0.00    -0.305 N 
ATOM     34  C   UNL     1      25.420 -28.708 -28.581  0.00  0.00    -0.013 C 
ATOM     35  C   UNL     1      24.464 -30.808 -29.324  0.00  0.00    -0.013 C 
ATOM     36  H   UNL     1      25.253 -30.325 -27.554  0.00  0.00    +0.000 HD
ENDBRANCH  32  33
ENDBRANCH   1  32
TORSDOF 4
ENDMDL
MODEL 5
REMARK VINA RESULT:    -7.864      2.306      3.843
REMARK INTER + INTRA:         -10.354
REMARK INTER:                  -9.562
REMARK INTRA:                  -0.792
REMARK UNBOUND:                -0.651
REMARK  Name = cpd193.pdb
REMARK  9 active torsions:
REMARK  status: ('A' for Active; 'I' for Inactive)
REMARK    1  A    between atoms: C_1  and  C_2
REMARK    2  A    between atoms: C_2  and  C_3
REMARK    3  A    between atoms: C_2  and  N_32
REMARK    4  A    between atoms: C_13  and  N_14
REMARK    5  A    between atoms: C_15  and  C_17
REMARK    6  A    between atoms: C_25  and  C_26
REMARK    7  A    between atoms: C_30  and  C_31
REMARK    8  A    between atoms: N_32  and  C_33
REMARK    9  A    between atoms: N_32  and  C_34
REMARK                            x       y       z     vdW  Elec       q    Type
REMARK                         _______ _______ _______ _____ _____    ______ ____
ROOT
ATOM      1  C   UNL     1      27.036 -29.635 -33.048  0.00  0.00    -0.020 C 
ATOM      2  C   UNL     1      27.234 -30.572 -34.278  0.00  0.00    -0.048 C 
ATOM      3  C   UNL     1      27.739 -31.904 -33.740  0.00  0.00    -0.049 C 
ATOM      4  C   UNL     1      28.669 -31.431 -32.638  0.00  0.00    -0.032 C 
ATOM      5  C   UNL     1      29.276 -32.500 -31.714  0.00  0.00    -0.034 C 
ATOM      6  C   UNL     1      30.244 -33.396 -32.484  0.00  0.00    -0.049 C 
ATOM      7  C   UNL     1      30.838 -34.497 -31.616  0.00  0.00    -0.042 C 
ATOM      8  C   UNL     1      31.072 -34.110 -30.149  0.00  0.00    +0.029 C 
ATOM      9  C   UNL     1      32.301 -34.867 -29.662  0.00  0.00    +0.180 C 
ATOM     10  O   UNL     1      32.234 -36.031 -29.255  0.00  0.00    -0.290 OA
ATOM     11  C   UNL     1      33.651 -34.213 -29.778  0.00  0.00    +0.073 C 
ATOM     12  C   UNL     1      33.716 -32.940 -30.192  0.00  0.00    -0.059 C 
ATOM     13  C   UNL     1      32.530 -32.065 -30.485  0.00  0.00    -0.026 C 
ATOM     14  C   UNL     1      31.196 -32.588 -29.889  0.00  0.00    -0.016 C 
ATOM     15  C   UNL     1      31.229 -32.343 -28.348  0.00  0.00    -0.058 C 
ATOM     16  C   UNL     1      29.924 -31.844 -30.451  0.00  0.00    -0.032 C 
ATOM     17  C   UNL     1      30.113 -30.318 -30.620  0.00  0.00    -0.049 C 
ATOM     18  C   UNL     1      28.858 -29.533 -31.067  0.00  0.00    -0.047 C 
ATOM     19  C   UNL     1      27.846 -30.352 -31.889  0.00  0.00    -0.025 C 
ATOM     20  C   UNL     1      26.787 -30.970 -30.931  0.00  0.00    -0.059 C 
ENDROOT
BRANCH  11  21
ATOM     21  N   UNL     1      34.715 -35.027 -29.451  0.00  0.00    -0.279 N 
ATOM     22  C   UNL     1      35.661 -35.593 -30.283  0.00  0.00    +0.248 C 
ATOM     23  O   UNL     1      35.741 -35.434 -31.495  0.00  0.00    -0.270 OA
ATOM     24  H   UNL     1      34.814 -35.233 -28.493  0.00  0.00    +0.000 HD
BRANCH  22  25
ATOM     25  C   UNL     1      36.684 -36.436 -29.600  0.00  0.00    +0.037 A 
ATOM     26  C   UNL     1      37.963 -36.634 -30.137  0.00  0.00    -0.050 A 
ATOM     27  C   UNL     1      38.888 -37.435 -29.460  0.00  0.00    -0.061 A 
ATOM     28  C   UNL     1      38.542 -38.030 -28.247  0.00  0.00    -0.062 A 
ATOM     29  C   UNL     1      37.277 -37.821 -27.700  0.00  0.00    -0.061 A 
ATOM     30  C   UNL     1      36.350 -37.022 -28.372  0.00  0.00    -0.050 A 
ENDBRANCH  22  25
ENDBRANCH  11  21
BRANCH   1  32
ATOM     31  C   UNL     1      28.168 -28.026 -34.686  0.00  0.00    -0.049 C 
ATOM     32  C   UNL     1      27.321 -28.135 -33.398  0.00  0.00    +0.010 C 
BRANCH  32  33
ATOM     33  N   UNL     1      26.190 -27.230 -33.665  0.00  0.00    -0.305 N 
ATOM     34  C   UNL     1      25.964 -26.105 -32.783  0.00  0.00    -0.013 C 
ATOM     35  C   UNL     1      25.951 -26.923 -35.065  0.00  0.00    -0.013 C 
ATOM     36  H   UNL     1      25.441 -27.858 -33.376  0.00  0.00    +0.000 HD
ENDBRANCH  32  33
ENDBRANCH   1  32
TORSDOF 4
ENDMDL
MODEL 6
REMARK VINA RESULT:    -7.825      1.905      3.604
REMARK INTER + INTRA:         -10.305
REMARK INTER:                  -9.516
REMARK INTRA:                  -0.789
REMARK UNBOUND:                -0.651
REMARK  Name = cpd193.pdb
REMARK  9 active torsions:
REMARK  status: ('A' for Active; 'I' for Inactive)
REMARK    1  A    between atoms: C_1  and  C_2
REMARK    2  A    between atoms: C_2  and  C_3
REMARK    3  A    between atoms: C_2  and  N_32
REMARK    4  A    between atoms: C_13  and  N_14
REMARK    5  A    between atoms: C_15  and  C_17
REMARK    6  A    between atoms: C_25  and  C_26
REMARK    7  A    between atoms: C_30  and  C_31
REMARK    8  A    between atoms: N_32  and  C_33
REMARK    9  A    between atoms: N_32  and  C_34
REMARK                            x       y       z     vdW  Elec       q    Type
REMARK                         _______ _______ _______ _____ _____    ______ ____
ROOT
ATOM      1  C   UNL     1      26.917 -30.233 -28.513  0.00  0.00    -0.020 C 
ATOM      2  C   UNL     1      27.841 -28.983 -28.405  0.00  0.00    -0.048 C 
ATOM      3  C   UNL     1      29.004 -29.212 -29.362  0.00  0.00    -0.049 C 
ATOM      4  C   UNL     1      29.243 -30.698 -29.167  0.00  0.00    -0.032 C 
ATOM      5  C   UNL     1      30.259 -31.381 -30.099  0.00  0.00    -0.034 C 
ATOM      6  C   UNL     1      31.672 -30.867 -29.831  0.00  0.00    -0.049 C 
ATOM      7  C   UNL     1      32.705 -31.487 -30.760  0.00  0.00    -0.042 C 
ATOM      8  C   UNL     1      32.426 -32.943 -31.161  0.00  0.00    +0.029 C 
ATOM      9  C   UNL     1      33.770 -33.639 -31.339  0.00  0.00    +0.180 C 
ATOM     10  O   UNL     1      34.411 -33.562 -32.391  0.00  0.00    -0.290 OA
ATOM     11  C   UNL     1      34.379 -34.353 -30.165  0.00  0.00    +0.073 C 
ATOM     12  C   UNL     1      33.667 -34.459 -29.035  0.00  0.00    -0.059 C 
ATOM     13  C   UNL     1      32.253 -33.983 -28.857  0.00  0.00    -0.026 C 
ATOM     14  C   UNL     1      31.503 -33.719 -30.190  0.00  0.00    -0.016 C 
ATOM     15  C   UNL     1      31.154 -35.100 -30.826  0.00  0.00    -0.058 C 
ATOM     16  C   UNL     1      30.146 -32.937 -30.002  0.00  0.00    -0.032 C 
ATOM     17  C   UNL     1      29.329 -33.387 -28.768  0.00  0.00    -0.049 C 
ATOM     18  C   UNL     1      27.943 -32.721 -28.604  0.00  0.00    -0.047 C 
ATOM     19  C   UNL     1      27.824 -31.318 -29.227  0.00  0.00    -0.025 C 
ATOM     20  C   UNL     1      27.291 -31.446 -30.683  0.00  0.00    -0.059 C 
ENDROOT
BRANCH  11  21
ATOM     21  N   UNL     1      35.658 -34.824 -30.378  0.00  0.00    -0.279 N 
ATOM     22  C   UNL     1      36.066 -36.097 -30.723  0.00  0.00    +0.248 C 
ATOM     23  O   UNL     1      35.333 -37.054 -30.943  0.00  0.00    -0.270 OA
ATOM     24  H   UNL     1      36.379 -34.162 -30.269  0.00  0.00    +0.000 HD
BRANCH  22  25
ATOM     25  C   UNL     1      37.539 -36.273 -30.871  0.00  0.00    +0.037 A 
ATOM     26  C   UNL     1      38.269 -35.629 -31.881  0.00  0.00    -0.050 A 
ATOM     27  C   UNL     1      39.648 -35.828 -31.980  0.00  0.00    -0.061 A 
ATOM     28  C   UNL     1      40.303 -36.660 -31.072  0.00  0.00    -0.062 A 
ATOM     29  C   UNL     1      39.585 -37.289 -30.056  0.00  0.00    -0.061 A 
ATOM     30  C   UNL     1      38.207 -37.093 -29.951  0.00  0.00    -0.050 A 
ENDBRANCH  22  25
ENDBRANCH  11  21
BRANCH   1  32
ATOM     31  C   UNL     1      27.047 -30.035 -25.963  0.00  0.00    -0.049 C 
ATOM     32  C   UNL     1      26.213 -30.564 -27.153  0.00  0.00    +0.010 C 
BRANCH  32  33
ATOM     33  N   UNL     1      24.870 -30.024 -26.885  0.00  0.00    -0.305 N 
ATOM     34  C   UNL     1      23.930 -29.898 -27.978  0.00  0.00    -0.013 C 
ATOM     35  C   UNL     1      24.255 -30.461 -25.643  0.00  0.00    -0.013 C 
ATOM     36  H   UNL     1      25.139 -29.051 -26.747  0.00  0.00    +0.000 HD
ENDBRANCH  32  33
ENDBRANCH   1  32
TORSDOF 4
ENDMDL
MODEL 7
REMARK VINA RESULT:    -7.767     20.465     22.011
REMARK INTER + INTRA:         -10.234
REMARK INTER:                  -9.428
REMARK INTRA:                  -0.805
REMARK UNBOUND:                -0.651
REMARK  Name = cpd193.pdb
REMARK  9 active torsions:
REMARK  status: ('A' for Active; 'I' for Inactive)
REMARK    1  A    between atoms: C_1  and  C_2
REMARK    2  A    between atoms: C_2  and  C_3
REMARK    3  A    between atoms: C_2  and  N_32
REMARK    4  A    between atoms: C_13  and  N_14
REMARK    5  A    between atoms: C_15  and  C_17
REMARK    6  A    between atoms: C_25  and  C_26
REMARK    7  A    between atoms: C_30  and  C_31
REMARK    8  A    between atoms: N_32  and  C_33
REMARK    9  A    between atoms: N_32  and  C_34
REMARK                            x       y       z     vdW  Elec       q    Type
REMARK                         _______ _______ _______ _____ _____    ______ ____
ROOT
ATOM      1  C   UNL     1      44.114 -12.610 -31.470  0.00  0.00    -0.020 C 
ATOM      2  C   UNL     1      44.410 -11.725 -32.718  0.00  0.00    -0.048 C 
ATOM      3  C   UNL     1      43.941 -12.510 -33.935  0.00  0.00    -0.049 C 
ATOM      4  C   UNL     1      44.352 -13.917 -33.542  0.00  0.00    -0.032 C 
ATOM      5  C   UNL     1      43.901 -15.070 -34.454  0.00  0.00    -0.034 C 
ATOM      6  C   UNL     1      44.588 -14.985 -35.816  0.00  0.00    -0.049 C 
ATOM      7  C   UNL     1      44.138 -16.085 -36.767  0.00  0.00    -0.042 C 
ATOM      8  C   UNL     1      43.812 -17.428 -36.097  0.00  0.00    +0.029 C 
ATOM      9  C   UNL     1      44.178 -18.534 -37.079  0.00  0.00    +0.180 C 
ATOM     10  O   UNL     1      43.410 -18.893 -37.976  0.00  0.00    -0.290 OA
ATOM     11  C   UNL     1      45.556 -19.134 -37.015  0.00  0.00    +0.073 C 
ATOM     12  C   UNL     1      46.375 -18.764 -36.022  0.00  0.00    -0.059 C 
ATOM     13  C   UNL     1      46.006 -17.838 -34.897  0.00  0.00    -0.026 C 
ATOM     14  C   UNL     1      44.477 -17.644 -34.715  0.00  0.00    -0.016 C 
ATOM     15  C   UNL     1      43.899 -18.946 -34.079  0.00  0.00    -0.058 C 
ATOM     16  C   UNL     1      44.106 -16.452 -33.752  0.00  0.00    -0.032 C 
ATOM     17  C   UNL     1      45.021 -16.342 -32.509  0.00  0.00    -0.049 C 
ATOM     18  C   UNL     1      44.630 -15.254 -31.483  0.00  0.00    -0.047 C 
ATOM     19  C   UNL     1      43.869 -14.054 -32.076  0.00  0.00    -0.025 C 
ATOM     20  C   UNL     1      42.338 -14.316 -31.976  0.00  0.00    -0.059 C 
ENDROOT
BRANCH  11  21
ATOM     21  N   UNL     1      45.845 -20.020 -38.033  0.00  0.00    -0.279 N 
ATOM     22  C   UNL     1      46.470 -19.779 -39.240  0.00  0.00    +0.248 C 
ATOM     23  O   UNL     1      46.924 -18.704 -39.614  0.00  0.00    -0.270 OA
ATOM     24  H   UNL     1      45.567 -20.952 -37.876  0.00  0.00    +0.000 HD
BRANCH  22  25
ATOM     25  C   UNL     1      46.622 -20.970 -40.125  0.00  0.00    +0.037 A 
ATOM     26  C   UNL     1      45.744 -21.226 -41.186  0.00  0.00    -0.050 A 
ATOM     27  C   UNL     1      45.927 -22.357 -41.987  0.00  0.00    -0.061 A 
ATOM     28  C   UNL     1      46.988 -23.227 -41.736  0.00  0.00    -0.062 A 
ATOM     29  C   UNL     1      47.874 -22.967 -40.692  0.00  0.00    -0.061 A 
ATOM     30  C   UNL     1      47.697 -21.839 -39.890  0.00  0.00    -0.050 A 
ENDBRANCH  22  25
ENDBRANCH  11  21
BRANCH   1  32
ATOM     31  C   UNL     1      46.348 -11.530 -30.837  0.00  0.00    -0.049 C 
ATOM     32  C   UNL     1      45.174 -12.401 -30.335  0.00  0.00    +0.010 C 
BRANCH  32  33
ATOM     33  N   UNL     1      44.772 -11.731 -29.087  0.00  0.00    -0.305 N 
ATOM     34  C   UNL     1      45.383 -10.467 -28.737  0.00  0.00    -0.013 C 
ATOM     35  C   UNL     1      43.355 -11.793 -28.771  0.00  0.00    -0.013 C 
ATOM     36  H   UNL     1      45.240 -12.361 -28.436  0.00  0.00    +0.000 HD
ENDBRANCH  32  33
ENDBRANCH   1  32
TORSDOF 4
ENDMDL
MODEL 8
REMARK VINA RESULT:    -7.750     18.029     21.467
REMARK INTER + INTRA:         -10.214
REMARK INTER:                  -9.416
REMARK INTRA:                  -0.798
REMARK UNBOUND:                -0.651
REMARK  Name = cpd193.pdb
REMARK  9 active torsions:
REMARK  status: ('A' for Active; 'I' for Inactive)
REMARK    1  A    between atoms: C_1  and  C_2
REMARK    2  A    between atoms: C_2  and  C_3
REMARK    3  A    between atoms: C_2  and  N_32
REMARK    4  A    between atoms: C_13  and  N_14
REMARK    5  A    between atoms: C_15  and  C_17
REMARK    6  A    between atoms: C_25  and  C_26
REMARK    7  A    between atoms: C_30  and  C_31
REMARK    8  A    between atoms: N_32  and  C_33
REMARK    9  A    between atoms: N_32  and  C_34
REMARK                            x       y       z     vdW  Elec       q    Type
REMARK                         _______ _______ _______ _____ _____    ______ ____
ROOT
ATOM      1  C   UNL     1      46.445 -20.675 -41.576  0.00  0.00    -0.020 C 
ATOM      2  C   UNL     1      45.234 -20.364 -42.507  0.00  0.00    -0.048 C 
ATOM      3  C   UNL     1      44.465 -19.219 -41.860  0.00  0.00    -0.049 C 
ATOM      4  C   UNL     1      44.576 -19.595 -40.393  0.00  0.00    -0.032 C 
ATOM      5  C   UNL     1      44.054 -18.583 -39.359  0.00  0.00    -0.034 C 
ATOM      6  C   UNL     1      42.537 -18.436 -39.462  0.00  0.00    -0.049 C 
ATOM      7  C   UNL     1      41.983 -17.410 -38.483  0.00  0.00    -0.042 C 
ATOM      8  C   UNL     1      42.724 -17.328 -37.141  0.00  0.00    +0.029 C 
ATOM      9  C   UNL     1      41.703 -16.967 -36.070  0.00  0.00    +0.180 C 
ATOM     10  O   UNL     1      41.364 -15.799 -35.857  0.00  0.00    -0.290 OA
ATOM     11  C   UNL     1      41.011 -18.073 -35.323  0.00  0.00    +0.073 C 
ATOM     12  C   UNL     1      41.402 -19.337 -35.536  0.00  0.00    -0.059 C 
ATOM     13  C   UNL     1      42.546 -19.750 -36.418  0.00  0.00    -0.026 C 
ATOM     14  C   UNL     1      43.526 -18.598 -36.762  0.00  0.00    -0.016 C 
ATOM     15  C   UNL     1      44.376 -18.293 -35.489  0.00  0.00    -0.058 C 
ATOM     16  C   UNL     1      44.536 -18.957 -37.920  0.00  0.00    -0.032 C 
ATOM     17  C   UNL     1      45.085 -20.402 -37.846  0.00  0.00    -0.049 C 
ATOM     18  C   UNL     1      46.158 -20.764 -38.900  0.00  0.00    -0.047 C 
ATOM     19  C   UNL     1      46.070 -19.962 -40.211  0.00  0.00    -0.025 C 
ATOM     20  C   UNL     1      46.983 -18.706 -40.108  0.00  0.00    -0.059 C 
ENDROOT
BRANCH  11  21
ATOM     21  N   UNL     1      40.001 -17.656 -34.481  0.00  0.00    -0.279 N 
ATOM     22  C   UNL     1      40.010 -17.544 -33.105  0.00  0.00    +0.248 C 
ATOM     23  O   UNL     1      40.964 -17.771 -32.370  0.00  0.00    -0.270 OA
ATOM     24  H   UNL     1      39.158 -17.403 -34.922  0.00  0.00    +0.000 HD
BRANCH  22  25
ATOM     25  C   UNL     1      38.736 -17.063 -32.499  0.00  0.00    +0.037 A 
ATOM     26  C   UNL     1      38.659 -15.858 -31.786  0.00  0.00    -0.050 A 
ATOM     27  C   UNL     1      37.441 -15.450 -31.234  0.00  0.00    -0.061 A 
ATOM     28  C   UNL     1      36.300 -16.236 -31.398  0.00  0.00    -0.062 A 
ATOM     29  C   UNL     1      36.368 -17.426 -32.121  0.00  0.00    -0.061 A 
ATOM     30  C   UNL     1      37.581 -17.837 -32.675  0.00  0.00    -0.050 A 
ENDBRANCH  22  25
ENDBRANCH  11  21
BRANCH   1  32
ATOM     31  C   UNL     1      46.128 -22.919 -42.768  0.00  0.00    -0.049 C 
ATOM     32  C   UNL     1      46.825 -22.195 -41.593  0.00  0.00    +0.010 C 
BRANCH  32  33
ATOM     33  N   UNL     1      48.236 -22.584 -41.753  0.00  0.00    -0.305 N 
ATOM     34  C   UNL     1      49.172 -22.293 -40.688  0.00  0.00    -0.013 C 
ATOM     35  C   UNL     1      48.464 -23.872 -42.385  0.00  0.00    -0.013 C 
ATOM     36  H   UNL     1      48.496 -21.876 -42.439  0.00  0.00    +0.000 HD
ENDBRANCH  32  33
ENDBRANCH   1  32
TORSDOF 4
ENDMDL
MODEL 9
REMARK VINA RESULT:    -7.710     15.836     17.040
REMARK INTER + INTRA:         -10.164
REMARK INTER:                  -9.691
REMARK INTRA:                  -0.473
REMARK UNBOUND:                -0.651
REMARK  Name = cpd193.pdb
REMARK  9 active torsions:
REMARK  status: ('A' for Active; 'I' for Inactive)
REMARK    1  A    between atoms: C_1  and  C_2
REMARK    2  A    between atoms: C_2  and  C_3
REMARK    3  A    between atoms: C_2  and  N_32
REMARK    4  A    between atoms: C_13  and  N_14
REMARK    5  A    between atoms: C_15  and  C_17
REMARK    6  A    between atoms: C_25  and  C_26
REMARK    7  A    between atoms: C_30  and  C_31
REMARK    8  A    between atoms: N_32  and  C_33
REMARK    9  A    between atoms: N_32  and  C_34
REMARK                            x       y       z     vdW  Elec       q    Type
REMARK                         _______ _______ _______ _____ _____    ______ ____
ROOT
ATOM      1  C   UNL     1      36.061 -17.767 -32.974  0.00  0.00    -0.020 C 
ATOM      2  C   UNL     1      35.294 -17.585 -34.318  0.00  0.00    -0.048 C 
ATOM      3  C   UNL     1      35.759 -18.701 -35.244  0.00  0.00    -0.049 C 
ATOM      4  C   UNL     1      37.234 -18.766 -34.893  0.00  0.00    -0.032 C 
ATOM      5  C   UNL     1      38.061 -19.909 -35.507  0.00  0.00    -0.034 C 
ATOM      6  C   UNL     1      38.176 -19.741 -37.022  0.00  0.00    -0.049 C 
ATOM      7  C   UNL     1      38.952 -20.875 -37.677  0.00  0.00    -0.042 C 
ATOM      8  C   UNL     1      40.093 -21.455 -36.829  0.00  0.00    +0.029 C 
ATOM      9  C   UNL     1      41.196 -21.901 -37.781  0.00  0.00    +0.180 C 
ATOM     10  O   UNL     1      41.169 -22.999 -38.343  0.00  0.00    -0.290 OA
ATOM     11  C   UNL     1      42.293 -20.932 -38.125  0.00  0.00    +0.073 C 
ATOM     12  C   UNL     1      42.334 -19.752 -37.491  0.00  0.00    -0.059 C 
ATOM     13  C   UNL     1      41.404 -19.332 -36.388  0.00  0.00    -0.026 C 
ATOM     14  C   UNL     1      40.633 -20.506 -35.730  0.00  0.00    -0.016 C 
ATOM     15  C   UNL     1      41.636 -21.298 -34.834  0.00  0.00    -0.058 C 
ATOM     16  C   UNL     1      39.449 -20.037 -34.800  0.00  0.00    -0.032 C 
ATOM     17  C   UNL     1      39.782 -18.794 -33.941  0.00  0.00    -0.049 C 
ATOM     18  C   UNL     1      38.688 -18.361 -32.937  0.00  0.00    -0.047 C 
ATOM     19  C   UNL     1      37.253 -18.744 -33.344  0.00  0.00    -0.025 C 
ATOM     20  C   UNL     1      36.895 -20.126 -32.725  0.00  0.00    -0.059 C 
ENDROOT
BRANCH  11  21
ATOM     21  N   UNL     1      43.161 -21.370 -39.104  0.00  0.00    -0.279 N 
ATOM     22  C   UNL     1      44.493 -21.055 -39.285  0.00  0.00    +0.248 C 
ATOM     23  O   UNL     1      45.168 -20.334 -38.559  0.00  0.00    -0.270 OA
ATOM     24  H   UNL     1      42.779 -21.992 -39.764  0.00  0.00    +0.000 HD
BRANCH  22  25
ATOM     25  C   UNL     1      45.145 -21.703 -40.459  0.00  0.00    +0.037 A 
ATOM     26  C   UNL     1      46.319 -22.460 -40.335  0.00  0.00    -0.050 A 
ATOM     27  C   UNL     1      46.893 -23.047 -41.465  0.00  0.00    -0.061 A 
ATOM     28  C   UNL     1      46.298 -22.888 -42.717  0.00  0.00    -0.062 A 
ATOM     29  C   UNL     1      45.121 -22.150 -42.842  0.00  0.00    -0.061 A 
ATOM     30  C   UNL     1      44.542 -21.563 -41.716  0.00  0.00    -0.050 A 
ENDBRANCH  22  25
ENDBRANCH  11  21
BRANCH   1  32
ATOM     31  C   UNL     1      36.148 -15.224 -33.258  0.00  0.00    -0.049 C 
ATOM     32  C   UNL     1      36.353 -16.397 -32.272  0.00  0.00    +0.010 C 
BRANCH  32  33
ATOM     33  N   UNL     1      35.547 -15.998 -31.106  0.00  0.00    -0.305 N 
ATOM     34  C   UNL     1      35.809 -14.724 -30.471  0.00  0.00    -0.013 C 
ATOM     35  C   UNL     1      34.134 -16.326 -31.179  0.00  0.00    -0.013 C 
ATOM     36  H   UNL     1      35.958 -16.640 -30.429  0.00  0.00    +0.000 HD
ENDBRANCH  32  33
ENDBRANCH   1  32
TORSDOF 4
ENDMDL
MODEL 10
REMARK VINA RESULT:    -7.345      3.387     10.275
REMARK INTER + INTRA:          -9.714
REMARK INTER:                  -8.907
REMARK INTRA:                  -0.807
REMARK UNBOUND:                -0.651
REMARK  Name = cpd193.pdb
REMARK  9 active torsions:
REMARK  status: ('A' for Active; 'I' for Inactive)
REMARK    1  A    between atoms: C_1  and  C_2
REMARK    2  A    between atoms: C_2  and  C_3
REMARK    3  A    between atoms: C_2  and  N_32
REMARK    4  A    between atoms: C_13  and  N_14
REMARK    5  A    between atoms: C_15  and  C_17
REMARK    6  A    between atoms: C_25  and  C_26
REMARK    7  A    between atoms: C_30  and  C_31
REMARK    8  A    between atoms: N_32  and  C_33
REMARK    9  A    between atoms: N_32  and  C_34
REMARK                            x       y       z     vdW  Elec       q    Type
REMARK                         _______ _______ _______ _____ _____    ______ ____
ROOT
ATOM      1  C   UNL     1      35.833 -38.495 -29.484  0.00  0.00    -0.020 C 
ATOM      2  C   UNL     1      36.741 -37.831 -30.564  0.00  0.00    -0.048 C 
ATOM      3  C   UNL     1      36.491 -36.331 -30.487  0.00  0.00    -0.049 C 
ATOM      4  C   UNL     1      34.994 -36.305 -30.232  0.00  0.00    -0.032 C 
ATOM      5  C   UNL     1      34.350 -34.944 -29.922  0.00  0.00    -0.034 C 
ATOM      6  C   UNL     1      34.408 -34.026 -31.142  0.00  0.00    -0.049 C 
ATOM      7  C   UNL     1      33.817 -32.650 -30.866  0.00  0.00    -0.042 C 
ATOM      8  C   UNL     1      32.635 -32.636 -29.886  0.00  0.00    +0.029 C 
ATOM      9  C   UNL     1      31.699 -31.510 -30.307  0.00  0.00    +0.180 C 
ATOM     10  O   UNL     1      31.888 -30.340 -29.963  0.00  0.00    -0.290 OA
ATOM     11  C   UNL     1      30.573 -31.817 -31.255  0.00  0.00    +0.073 C 
ATOM     12  C   UNL     1      30.354 -33.093 -31.604  0.00  0.00    -0.059 C 
ATOM     13  C   UNL     1      31.102 -34.277 -31.061  0.00  0.00    -0.026 C 
ATOM     14  C   UNL     1      31.885 -33.985 -29.753  0.00  0.00    -0.016 C 
ATOM     15  C   UNL     1      30.852 -33.871 -28.590  0.00  0.00    -0.058 C 
ATOM     16  C   UNL     1      32.902 -35.125 -29.362  0.00  0.00    -0.032 C 
ATOM     17  C   UNL     1      32.361 -36.555 -29.599  0.00  0.00    -0.049 C 
ATOM     18  C   UNL     1      33.283 -37.706 -29.132  0.00  0.00    -0.047 C 
ATOM     19  C   UNL     1      34.784 -37.364 -29.121  0.00  0.00    -0.025 C 
ATOM     20  C   UNL     1      35.180 -36.835 -27.712  0.00  0.00    -0.059 C 
ENDROOT
BRANCH  11  21
ATOM     21  N   UNL     1      29.872 -30.713 -31.694  0.00  0.00    -0.279 N 
ATOM     22  C   UNL     1      28.678 -30.202 -31.225  0.00  0.00    +0.248 C 
ATOM     23  O   UNL     1      28.030 -30.637 -30.280  0.00  0.00    -0.270 OA
ATOM     24  H   UNL     1      30.279 -30.222 -32.444  0.00  0.00    +0.000 HD
BRANCH  22  25
ATOM     25  C   UNL     1      28.186 -28.986 -31.934  0.00  0.00    +0.037 A 
ATOM     26  C   UNL     1      27.480 -27.972 -31.271  0.00  0.00    -0.050 A 
ATOM     27  C   UNL     1      27.038 -26.852 -31.979  0.00  0.00    -0.061 A 
ATOM     28  C   UNL     1      27.304 -26.737 -33.344  0.00  0.00    -0.062 A 
ATOM     29  C   UNL     1      28.020 -27.734 -34.004  0.00  0.00    -0.061 A 
ATOM     30  C   UNL     1      28.465 -28.855 -33.301  0.00  0.00    -0.050 A 
ENDBRANCH  22  25
ENDBRANCH  11  21
BRANCH   1  32
ATOM     31  C   UNL     1      35.577 -40.135 -31.434  0.00  0.00    -0.049 C 
ATOM     32  C   UNL     1      35.341 -39.916 -29.922  0.00  0.00    +0.010 C 
BRANCH  32  33
ATOM     33  N   UNL     1      35.953 -41.110 -29.314  0.00  0.00    -0.305 N 
ATOM     34  C   UNL     1      37.203 -40.975 -28.597  0.00  0.00    -0.013 C 
ATOM     35  C   UNL     1      35.027 -42.038 -28.687  0.00  0.00    -0.013 C 
ATOM     36  H   UNL     1      36.269 -41.555 -30.175  0.00  0.00    +0.000 HD
ENDBRANCH  32  33
ENDBRANCH   1  32
TORSDOF 4
ENDMDL
MODEL 11
REMARK VINA RESULT:    -7.213     20.531     23.932
REMARK INTER + INTRA:          -9.551
REMARK INTER:                  -8.700
REMARK INTRA:                  -0.851
REMARK UNBOUND:                -0.651
REMARK  Name = cpd193.pdb
REMARK  9 active torsions:
REMARK  status: ('A' for Active; 'I' for Inactive)
REMARK    1  A    between atoms: C_1  and  C_2
REMARK    2  A    between atoms: C_2  and  C_3
REMARK    3  A    between atoms: C_2  and  N_32
REMARK    4  A    between atoms: C_13  and  N_14
REMARK    5  A    between atoms: C_15  and  C_17
REMARK    6  A    between atoms: C_25  and  C_26
REMARK    7  A    between atoms: C_30  and  C_31
REMARK    8  A    between atoms: N_32  and  C_33
REMARK    9  A    between atoms: N_32  and  C_34
REMARK                            x       y       z     vdW  Elec       q    Type
REMARK                         _______ _______ _______ _____ _____    ______ ____
ROOT
ATOM      1  C   UNL     1      48.129 -49.746 -20.248  0.00  0.00    -0.020 C 
ATOM      2  C   UNL     1      49.052 -49.667 -18.994  0.00  0.00    -0.048 C 
ATOM      3  C   UNL     1      48.138 -49.509 -17.786  0.00  0.00    -0.049 C 
ATOM      4  C   UNL     1      47.077 -48.583 -18.351  0.00  0.00    -0.032 C 
ATOM      5  C   UNL     1      45.845 -48.297 -17.476  0.00  0.00    -0.034 C 
ATOM      6  C   UNL     1      46.236 -47.494 -16.236  0.00  0.00    -0.049 C 
ATOM      7  C   UNL     1      45.052 -47.223 -15.318  0.00  0.00    -0.042 C 
ATOM      8  C   UNL     1      43.709 -47.020 -16.035  0.00  0.00    +0.029 C 
ATOM      9  C   UNL     1      42.894 -46.027 -15.216  0.00  0.00    +0.180 C 
ATOM     10  O   UNL     1      42.223 -46.379 -14.241  0.00  0.00    -0.290 OA
ATOM     11  C   UNL     1      42.993 -44.563 -15.542  0.00  0.00    +0.073 C 
ATOM     12  C   UNL     1      43.698 -44.188 -16.619  0.00  0.00    -0.059 C 
ATOM     13  C   UNL     1      44.351 -45.127 -17.593  0.00  0.00    -0.026 C 
ATOM     14  C   UNL     1      43.823 -46.584 -17.517  0.00  0.00    -0.016 C 
ATOM     15  C   UNL     1      42.400 -46.614 -18.158  0.00  0.00    -0.058 C 
ATOM     16  C   UNL     1      44.712 -47.617 -18.311  0.00  0.00    -0.032 C 
ATOM     17  C   UNL     1      45.229 -47.085 -19.669  0.00  0.00    -0.049 C 
ATOM     18  C   UNL     1      46.017 -48.100 -20.529  0.00  0.00    -0.047 C 
ATOM     19  C   UNL     1      46.734 -49.203 -19.729  0.00  0.00    -0.025 C 
ATOM     20  C   UNL     1      45.798 -50.440 -19.609  0.00  0.00    -0.059 C 
ENDROOT
BRANCH  11  21
ATOM     21  N   UNL     1      42.338 -43.730 -14.658  0.00  0.00    -0.279 N 
ATOM     22  C   UNL     1      42.817 -43.145 -13.503  0.00  0.00    +0.248 C 
ATOM     23  O   UNL     1      43.959 -43.238 -13.068  0.00  0.00    -0.270 OA
ATOM     24  H   UNL     1      41.401 -43.526 -14.881  0.00  0.00    +0.000 HD
BRANCH  22  25
ATOM     25  C   UNL     1      41.836 -42.297 -12.767  0.00  0.00    +0.037 A 
ATOM     26  C   UNL     1      40.575 -41.986 -13.297  0.00  0.00    -0.050 A 
ATOM     27  C   UNL     1      39.691 -41.186 -12.569  0.00  0.00    -0.061 A 
ATOM     28  C   UNL     1      40.057 -40.700 -11.313  0.00  0.00    -0.062 A 
ATOM     29  C   UNL     1      41.302 -41.020 -10.775  0.00  0.00    -0.061 A 
ATOM     30  C   UNL     1      42.189 -41.821 -11.497  0.00  0.00    -0.050 A 
ENDBRANCH  22  25
ENDBRANCH  11  21
BRANCH   1  32
ATOM     31  C   UNL     1      49.765 -47.976 -21.110  0.00  0.00    -0.049 C 
ATOM     32  C   UNL     1      48.801 -49.114 -21.514  0.00  0.00    +0.010 C 
BRANCH  32  33
ATOM     33  N   UNL     1      49.631 -49.959 -22.388  0.00  0.00    -0.305 N 
ATOM     34  C   UNL     1      51.055 -49.715 -22.459  0.00  0.00    -0.013 C 
ATOM     35  C   UNL     1      49.286 -51.371 -22.406  0.00  0.00    -0.013 C 
ATOM     36  H   UNL     1      49.323 -49.576 -23.282  0.00  0.00    +0.000 HD
ENDBRANCH  32  33
ENDBRANCH   1  32
TORSDOF 4
ENDMDL
MODEL 12
REMARK VINA RESULT:    -7.117     16.349     17.646
REMARK INTER + INTRA:          -9.432
REMARK INTER:                  -8.592
REMARK INTRA:                  -0.841
REMARK UNBOUND:                -0.651
REMARK  Name = cpd193.pdb
REMARK  9 active torsions:
REMARK  status: ('A' for Active; 'I' for Inactive)
REMARK    1  A    between atoms: C_1  and  C_2
REMARK    2  A    between atoms: C_2  and  C_3
REMARK    3  A    between atoms: C_2  and  N_32
REMARK    4  A    between atoms: C_13  and  N_14
REMARK    5  A    between atoms: C_15  and  C_17
REMARK    6  A    between atoms: C_25  and  C_26
REMARK    7  A    between atoms: C_30  and  C_31
REMARK    8  A    between atoms: N_32  and  C_33
REMARK    9  A    between atoms: N_32  and  C_34
REMARK                            x       y       z     vdW  Elec       q    Type
REMARK                         _______ _______ _______ _____ _____    ______ ____
ROOT
ATOM      1  C   UNL     1      36.702 -17.823 -32.957  0.00  0.00    -0.020 C 
ATOM      2  C   UNL     1      36.555 -19.347 -32.664  0.00  0.00    -0.048 C 
ATOM      3  C   UNL     1      37.947 -19.954 -32.784  0.00  0.00    -0.049 C 
ATOM      4  C   UNL     1      38.497 -19.174 -33.965  0.00  0.00    -0.032 C 
ATOM      5  C   UNL     1      39.979 -19.375 -34.320  0.00  0.00    -0.034 C 
ATOM      6  C   UNL     1      40.228 -20.794 -34.827  0.00  0.00    -0.049 C 
ATOM      7  C   UNL     1      41.693 -21.050 -35.152  0.00  0.00    -0.042 C 
ATOM      8  C   UNL     1      42.456 -19.838 -35.706  0.00  0.00    +0.029 C 
ATOM      9  C   UNL     1      43.504 -20.358 -36.681  0.00  0.00    +0.180 C 
ATOM     10  O   UNL     1      44.604 -20.769 -36.301  0.00  0.00    -0.290 OA
ATOM     11  C   UNL     1      43.148 -20.471 -38.138  0.00  0.00    +0.073 C 
ATOM     12  C   UNL     1      41.964 -19.997 -38.551  0.00  0.00    -0.059 C 
ATOM     13  C   UNL     1      40.971 -19.279 -37.681  0.00  0.00    -0.026 C 
ATOM     14  C   UNL     1      41.564 -18.748 -36.350  0.00  0.00    -0.016 C 
ATOM     15  C   UNL     1      42.450 -17.506 -36.680  0.00  0.00    -0.058 C 
ATOM     16  C   UNL     1      40.468 -18.276 -35.319  0.00  0.00    -0.032 C 
ATOM     17  C   UNL     1      39.289 -17.509 -35.964  0.00  0.00    -0.049 C 
ATOM     18  C   UNL     1      38.244 -16.935 -34.979  0.00  0.00    -0.047 C 
ATOM     19  C   UNL     1      38.123 -17.703 -33.650  0.00  0.00    -0.025 C 
ATOM     20  C   UNL     1      39.071 -17.061 -32.597  0.00  0.00    -0.059 C 
ENDROOT
BRANCH  11  21
ATOM     21  N   UNL     1      44.104 -21.087 -38.918  0.00  0.00    -0.279 N 
ATOM     22  C   UNL     1      45.008 -20.518 -39.793  0.00  0.00    +0.248 C 
ATOM     23  O   UNL     1      45.145 -19.319 -40.008  0.00  0.00    -0.270 OA
ATOM     24  H   UNL     1      44.148 -22.068 -38.841  0.00  0.00    +0.000 HD
BRANCH  22  25
ATOM     25  C   UNL     1      45.908 -21.479 -40.491  0.00  0.00    +0.037 A 
ATOM     26  C   UNL     1      45.608 -21.995 -41.759  0.00  0.00    -0.050 A 
ATOM     27  C   UNL     1      46.483 -22.895 -42.372  0.00  0.00    -0.061 A 
ATOM     28  C   UNL     1      47.660 -23.277 -41.727  0.00  0.00    -0.062 A 
ATOM     29  C   UNL     1      47.972 -22.753 -40.473  0.00  0.00    -0.061 A 
ATOM     30  C   UNL     1      47.102 -21.853 -39.857  0.00  0.00    -0.050 A 
ENDBRANCH  22  25
ENDBRANCH  11  21
BRANCH   1  32
ATOM     31  C   UNL     1      34.793 -18.278 -34.601  0.00  0.00    -0.049 C 
ATOM     32  C   UNL     1      35.431 -17.233 -33.657  0.00  0.00    +0.010 C 
BRANCH  32  33
ATOM     33  N   UNL     1      34.294 -16.790 -32.833  0.00  0.00    -0.305 N 
ATOM     34  C   UNL     1      33.131 -17.644 -32.719  0.00  0.00    -0.013 C 
ATOM     35  C   UNL     1      34.643 -16.122 -31.591  0.00  0.00    -0.013 C 
ATOM     36  H   UNL     1      33.943 -16.067 -33.461  0.00  0.00    +0.000 HD
ENDBRANCH  32  33
ENDBRANCH   1  32
TORSDOF 4
ENDMDL
MODEL 13
REMARK VINA RESULT:    -6.960      2.768      5.016
REMARK INTER + INTRA:          -9.238
REMARK INTER:                  -8.384
REMARK INTRA:                  -0.854
REMARK UNBOUND:                -0.651
REMARK  Name = cpd193.pdb
REMARK  9 active torsions:
REMARK  status: ('A' for Active; 'I' for Inactive)
REMARK    1  A    between atoms: C_1  and  C_2
REMARK    2  A    between atoms: C_2  and  C_3
REMARK    3  A    between atoms: C_2  and  N_32
REMARK    4  A    between atoms: C_13  and  N_14
REMARK    5  A    between atoms: C_15  and  C_17
REMARK    6  A    between atoms: C_25  and  C_26
REMARK    7  A    between atoms: C_30  and  C_31
REMARK    8  A    between atoms: N_32  and  C_33
REMARK    9  A    between atoms: N_32  and  C_34
REMARK                            x       y       z     vdW  Elec       q    Type
REMARK                         _______ _______ _______ _____ _____    ______ ____
ROOT
ATOM      1  C   UNL     1      26.219 -28.167 -33.087  0.00  0.00    -0.020 C 
ATOM      2  C   UNL     1      26.276 -29.144 -34.300  0.00  0.00    -0.048 C 
ATOM      3  C   UNL     1      26.719 -30.496 -33.756  0.00  0.00    -0.049 C 
ATOM      4  C   UNL     1      27.745 -30.064 -32.723  0.00  0.00    -0.032 C 
ATOM      5  C   UNL     1      28.331 -31.151 -31.807  0.00  0.00    -0.034 C 
ATOM      6  C   UNL     1      29.187 -32.132 -32.608  0.00  0.00    -0.049 C 
ATOM      7  C   UNL     1      29.754 -33.250 -31.745  0.00  0.00    -0.042 C 
ATOM      8  C   UNL     1      30.103 -32.846 -30.306  0.00  0.00    +0.029 C 
ATOM      9  C   UNL     1      31.304 -33.677 -29.871  0.00  0.00    +0.180 C 
ATOM     10  O   UNL     1      31.181 -34.822 -29.429  0.00  0.00    -0.290 OA
ATOM     11  C   UNL     1      32.686 -33.123 -30.085  0.00  0.00    +0.073 C 
ATOM     12  C   UNL     1      32.815 -31.868 -30.538  0.00  0.00    -0.059 C 
ATOM     13  C   UNL     1      31.677 -30.918 -30.785  0.00  0.00    -0.026 C 
ATOM     14  C   UNL     1      30.348 -31.331 -30.097  0.00  0.00    -0.016 C 
ATOM     15  C   UNL     1      30.492 -31.052 -28.569  0.00  0.00    -0.058 C 
ATOM     16  C   UNL     1      29.099 -30.513 -30.604  0.00  0.00    -0.032 C 
ATOM     17  C   UNL     1      29.383 -29.008 -30.826  0.00  0.00    -0.049 C 
ATOM     18  C   UNL     1      28.161 -28.147 -31.221  0.00  0.00    -0.047 C 
ATOM     19  C   UNL     1      27.046 -28.912 -31.959  0.00  0.00    -0.025 C 
ATOM     20  C   UNL     1      26.006 -29.430 -30.923  0.00  0.00    -0.059 C 
ENDROOT
BRANCH  11  21
ATOM     21  N   UNL     1      33.709 -34.003 -29.798  0.00  0.00    -0.279 N 
ATOM     22  C   UNL     1      34.482 -34.746 -30.668  0.00  0.00    +0.248 C 
ATOM     23  O   UNL     1      34.412 -34.725 -31.892  0.00  0.00    -0.270 OA
ATOM     24  H   UNL     1      33.917 -34.115 -28.843  0.00  0.00    +0.000 HD
BRANCH  22  25
ATOM     25  C   UNL     1      35.509 -35.612 -30.023  0.00  0.00    +0.037 A 
ATOM     26  C   UNL     1      36.769 -35.830 -30.599  0.00  0.00    -0.050 A 
ATOM     27  C   UNL     1      37.698 -36.652 -29.957  0.00  0.00    -0.061 A 
ATOM     28  C   UNL     1      37.378 -37.251 -28.738  0.00  0.00    -0.062 A 
ATOM     29  C   UNL     1      36.134 -37.023 -28.152  0.00  0.00    -0.061 A 
ATOM     30  C   UNL     1      35.202 -36.202 -28.789  0.00  0.00    -0.050 A 
ENDBRANCH  22  25
ENDBRANCH  11  21
BRANCH   1  32
ATOM     31  C   UNL     1      27.466 -26.690 -34.766  0.00  0.00    -0.049 C 
ATOM     32  C   UNL     1      26.585 -26.700 -33.495  0.00  0.00    +0.010 C 
BRANCH  32  33
ATOM     33  N   UNL     1      25.507 -25.754 -33.830  0.00  0.00    -0.305 N 
ATOM     34  C   UNL     1      25.222 -25.473 -35.220  0.00  0.00    -0.013 C 
ATOM     35  C   UNL     1      24.315 -25.844 -33.003  0.00  0.00    -0.013 C 
ATOM     36  H   UNL     1      25.986 -24.897 -33.553  0.00  0.00    +0.000 HD
ENDBRANCH  32  33
ENDBRANCH   1  32
TORSDOF 4
ENDMDL
MODEL 14
REMARK VINA RESULT:    -6.839      2.145      4.016
REMARK INTER + INTRA:          -9.089
REMARK INTER:                  -8.306
REMARK INTRA:                  -0.782
REMARK UNBOUND:                -0.651
REMARK  Name = cpd193.pdb
REMARK  9 active torsions:
REMARK  status: ('A' for Active; 'I' for Inactive)
REMARK    1  A    between atoms: C_1  and  C_2
REMARK    2  A    between atoms: C_2  and  C_3
REMARK    3  A    between atoms: C_2  and  N_32
REMARK    4  A    between atoms: C_13  and  N_14
REMARK    5  A    between atoms: C_15  and  C_17
REMARK    6  A    between atoms: C_25  and  C_26
REMARK    7  A    between atoms: C_30  and  C_31
REMARK    8  A    between atoms: N_32  and  C_33
REMARK    9  A    between atoms: N_32  and  C_34
REMARK                            x       y       z     vdW  Elec       q    Type
REMARK                         _______ _______ _______ _____ _____    ______ ____
ROOT
ATOM      1  C   UNL     1      26.426 -29.518 -31.334  0.00  0.00    -0.020 C 
ATOM      2  C   UNL     1      27.311 -28.464 -30.603  0.00  0.00    -0.048 C 
ATOM      3  C   UNL     1      28.756 -28.764 -30.980  0.00  0.00    -0.049 C 
ATOM      4  C   UNL     1      28.739 -30.282 -30.982  0.00  0.00    -0.032 C 
ATOM      5  C   UNL     1      30.000 -31.005 -31.486  0.00  0.00    -0.034 C 
ATOM      6  C   UNL     1      31.174 -30.773 -30.537  0.00  0.00    -0.049 C 
ATOM      7  C   UNL     1      32.456 -31.438 -31.021  0.00  0.00    -0.042 C 
ATOM      8  C   UNL     1      32.256 -32.765 -31.766  0.00  0.00    +0.029 C 
ATOM      9  C   UNL     1      33.460 -33.649 -31.467  0.00  0.00    +0.180 C 
ATOM     10  O   UNL     1      34.516 -33.551 -32.098  0.00  0.00    -0.290 OA
ATOM     11  C   UNL     1      33.394 -34.595 -30.300  0.00  0.00    +0.073 C 
ATOM     12  C   UNL     1      32.237 -34.719 -29.635  0.00  0.00    -0.059 C 
ATOM     13  C   UNL     1      30.950 -34.038 -30.007  0.00  0.00    -0.026 C 
ATOM     14  C   UNL     1      30.922 -33.489 -31.459  0.00  0.00    -0.016 C 
ATOM     15  C   UNL     1      30.776 -34.703 -32.429  0.00  0.00    -0.058 C 
ATOM     16  C   UNL     1      29.710 -32.520 -31.740  0.00  0.00    -0.032 C 
ATOM     17  C   UNL     1      28.381 -32.976 -31.093  0.00  0.00    -0.049 C 
ATOM     18  C   UNL     1      27.142 -32.113 -31.430  0.00  0.00    -0.047 C 
ATOM     19  C   UNL     1      27.454 -30.643 -31.769  0.00  0.00    -0.025 C 
ATOM     20  C   UNL     1      27.638 -30.499 -33.307  0.00  0.00    -0.059 C 
ENDROOT
BRANCH  11  21
ATOM     21  N   UNL     1      34.578 -35.244 -30.017  0.00  0.00    -0.279 N 
ATOM     22  C   UNL     1      34.990 -36.503 -30.405  0.00  0.00    +0.248 C 
ATOM     23  O   UNL     1      34.367 -37.276 -31.124  0.00  0.00    -0.270 OA
ATOM     24  H   UNL     1      35.217 -34.740 -29.463  0.00  0.00    +0.000 HD
BRANCH  22  25
ATOM     25  C   UNL     1      36.340 -36.908 -29.918  0.00  0.00    +0.037 A 
ATOM     26  C   UNL     1      36.515 -37.657 -28.746  0.00  0.00    -0.050 A 
ATOM     27  C   UNL     1      37.801 -38.011 -28.329  0.00  0.00    -0.061 A 
ATOM     28  C   UNL     1      38.911 -37.627 -29.081  0.00  0.00    -0.062 A 
ATOM     29  C   UNL     1      38.741 -36.896 -30.256  0.00  0.00    -0.061 A 
ATOM     30  C   UNL     1      37.459 -36.541 -30.678  0.00  0.00    -0.050 A 
ENDBRANCH  22  25
ENDBRANCH  11  21
BRANCH   1  32
ATOM     31  C   UNL     1      25.080 -29.060 -29.205  0.00  0.00    -0.049 C 
ATOM     32  C   UNL     1      25.151 -29.893 -30.505  0.00  0.00    +0.010 C 
BRANCH  32  33
ATOM     33  N   UNL     1      23.819 -29.693 -31.101  0.00  0.00    -0.305 N 
ATOM     34  C   UNL     1      22.753 -29.159 -30.282  0.00  0.00    -0.013 C 
ATOM     35  C   UNL     1      23.811 -29.184 -32.462  0.00  0.00    -0.013 C 
ATOM     36  H   UNL     1      23.547 -30.674 -31.159  0.00  0.00    +0.000 HD
ENDBRANCH  32  33
ENDBRANCH   1  32
TORSDOF 4
ENDMDL
MODEL 15
REMARK VINA RESULT:    -6.710     17.290     20.736
REMARK INTER + INTRA:          -8.929
REMARK INTER:                  -8.242
REMARK INTRA:                  -0.687
REMARK UNBOUND:                -0.651
REMARK  Name = cpd193.pdb
REMARK  9 active torsions:
REMARK  status: ('A' for Active; 'I' for Inactive)
REMARK    1  A    between atoms: C_1  and  C_2
REMARK    2  A    between atoms: C_2  and  C_3
REMARK    3  A    between atoms: C_2  and  N_32
REMARK    4  A    between atoms: C_13  and  N_14
REMARK    5  A    between atoms: C_15  and  C_17
REMARK    6  A    between atoms: C_25  and  C_26
REMARK    7  A    between atoms: C_30  and  C_31
REMARK    8  A    between atoms: N_32  and  C_33
REMARK    9  A    between atoms: N_32  and  C_34
REMARK                            x       y       z     vdW  Elec       q    Type
REMARK                         _______ _______ _______ _____ _____    ______ ____
ROOT
ATOM      1  C   UNL     1      45.608 -19.901 -40.836  0.00  0.00    -0.020 C 
ATOM      2  C   UNL     1      44.743 -19.004 -41.773  0.00  0.00    -0.048 C 
ATOM      3  C   UNL     1      44.007 -18.015 -40.878  0.00  0.00    -0.049 C 
ATOM      4  C   UNL     1      43.671 -18.901 -39.692  0.00  0.00    -0.032 C 
ATOM      5  C   UNL     1      43.050 -18.229 -38.457  0.00  0.00    -0.034 C 
ATOM      6  C   UNL     1      41.651 -17.701 -38.772  0.00  0.00    -0.049 C 
ATOM      7  C   UNL     1      41.014 -16.989 -37.587  0.00  0.00    -0.042 C 
ATOM      8  C   UNL     1      41.380 -17.565 -36.212  0.00  0.00    +0.029 C 
ATOM      9  C   UNL     1      40.176 -17.376 -35.297  0.00  0.00    +0.180 C 
ATOM     10  O   UNL     1      39.968 -16.315 -34.702  0.00  0.00    -0.290 OA
ATOM     11  C   UNL     1      39.159 -18.480 -35.198  0.00  0.00    +0.073 C 
ATOM     12  C   UNL     1      39.404 -19.640 -35.822  0.00  0.00    -0.059 C 
ATOM     13  C   UNL     1      40.667 -19.971 -36.565  0.00  0.00    -0.026 C 
ATOM     14  C   UNL     1      41.860 -19.038 -36.231  0.00  0.00    -0.016 C 
ATOM     15  C   UNL     1      42.380 -19.413 -34.808  0.00  0.00    -0.058 C 
ATOM     16  C   UNL     1      43.075 -19.191 -37.225  0.00  0.00    -0.032 C 
ATOM     17  C   UNL     1      43.370 -20.653 -37.634  0.00  0.00    -0.049 C 
ATOM     18  C   UNL     1      44.617 -20.861 -38.524  0.00  0.00    -0.047 C 
ATOM     19  C   UNL     1      44.995 -19.651 -39.396  0.00  0.00    -0.025 C 
ATOM     20  C   UNL     1      46.021 -18.766 -38.631  0.00  0.00    -0.059 C 
ENDROOT
BRANCH  11  21
ATOM     21  N   UNL     1      38.035 -18.161 -34.465  0.00  0.00    -0.279 N 
ATOM     22  C   UNL     1      37.503 -18.811 -33.368  0.00  0.00    +0.248 C 
ATOM     23  O   UNL     1      37.977 -19.797 -32.815  0.00  0.00    -0.270 OA
ATOM     24  H   UNL     1      37.544 -17.362 -34.764  0.00  0.00    +0.000 HD
BRANCH  22  25
ATOM     25  C   UNL     1      36.262 -18.202 -32.810  0.00  0.00    +0.037 A 
ATOM     26  C   UNL     1      35.000 -18.785 -32.991  0.00  0.00    -0.050 A 
ATOM     27  C   UNL     1      33.865 -18.176 -32.450  0.00  0.00    -0.061 A 
ATOM     28  C   UNL     1      33.986 -16.991 -31.723  0.00  0.00    -0.062 A 
ATOM     29  C   UNL     1      35.240 -16.417 -31.526  0.00  0.00    -0.061 A 
ATOM     30  C   UNL     1      36.377 -17.022 -32.063  0.00  0.00    -0.050 A 
ENDBRANCH  22  25
ENDBRANCH  11  21
BRANCH   1  32
ATOM     31  C   UNL     1      45.021 -21.507 -42.742  0.00  0.00    -0.049 C 
ATOM     32  C   UNL     1      45.753 -21.359 -41.389  0.00  0.00    +0.010 C 
BRANCH  32  33
ATOM     33  N   UNL     1      47.096 -21.890 -41.678  0.00  0.00    -0.305 N 
ATOM     34  C   UNL     1      48.177 -20.966 -41.946  0.00  0.00    -0.013 C 
ATOM     35  C   UNL     1      47.502 -23.037 -40.882  0.00  0.00    -0.013 C 
ATOM     36  H   UNL     1      46.905 -22.243 -42.615  0.00  0.00    +0.000 HD
ENDBRANCH  32  33
ENDBRANCH   1  32
TORSDOF 4
ENDMDL
MODEL 16
REMARK VINA RESULT:    -6.673      2.080      3.849
REMARK INTER + INTRA:          -8.885
REMARK INTER:                  -8.494
REMARK INTRA:                  -0.391
REMARK UNBOUND:                -0.651
REMARK  Name = cpd193.pdb
REMARK  9 active torsions:
REMARK  status: ('A' for Active; 'I' for Inactive)
REMARK    1  A    between atoms: C_1  and  C_2
REMARK    2  A    between atoms: C_2  and  C_3
REMARK    3  A    between atoms: C_2  and  N_32
REMARK    4  A    between atoms: C_13  and  N_14
REMARK    5  A    between atoms: C_15  and  C_17
REMARK    6  A    between atoms: C_25  and  C_26
REMARK    7  A    between atoms: C_30  and  C_31
REMARK    8  A    between atoms: N_32  and  C_33
REMARK    9  A    between atoms: N_32  and  C_34
REMARK                            x       y       z     vdW  Elec       q    Type
REMARK                         _______ _______ _______ _____ _____    ______ ____
ROOT
ATOM      1  C   UNL     1      25.314 -30.778 -31.011  0.00  0.00    -0.020 C 
ATOM      2  C   UNL     1      24.925 -32.287 -30.982  0.00  0.00    -0.048 C 
ATOM      3  C   UNL     1      26.009 -33.005 -30.189  0.00  0.00    -0.049 C 
ATOM      4  C   UNL     1      27.246 -32.262 -30.661  0.00  0.00    -0.032 C 
ATOM      5  C   UNL     1      28.576 -32.581 -29.959  0.00  0.00    -0.034 C 
ATOM      6  C   UNL     1      29.020 -34.011 -30.260  0.00  0.00    -0.049 C 
ATOM      7  C   UNL     1      30.314 -34.384 -29.550  0.00  0.00    -0.042 C 
ATOM      8  C   UNL     1      31.317 -33.234 -29.387  0.00  0.00    +0.029 C 
ATOM      9  C   UNL     1      32.718 -33.829 -29.455  0.00  0.00    +0.180 C 
ATOM     10  O   UNL     1      33.263 -34.333 -28.468  0.00  0.00    -0.290 OA
ATOM     11  C   UNL     1      33.413 -33.900 -30.787  0.00  0.00    +0.073 C 
ATOM     12  C   UNL     1      32.831 -33.327 -31.849  0.00  0.00    -0.059 C 
ATOM     13  C   UNL     1      31.552 -32.538 -31.812  0.00  0.00    -0.026 C 
ATOM     14  C   UNL     1      31.140 -32.068 -30.391  0.00  0.00    -0.016 C 
ATOM     15  C   UNL     1      32.090 -30.901 -29.976  0.00  0.00    -0.058 C 
ATOM     16  C   UNL     1      29.665 -31.517 -30.316  0.00  0.00    -0.032 C 
ATOM     17  C   UNL     1      29.257 -30.650 -31.530  0.00  0.00    -0.049 C 
ATOM     18  C   UNL     1      27.855 -30.002 -31.449  0.00  0.00    -0.047 C 
ATOM     19  C   UNL     1      26.839 -30.769 -30.583  0.00  0.00    -0.025 C 
ATOM     20  C   UNL     1      26.883 -30.216 -29.129  0.00  0.00    -0.059 C 
ENDROOT
BRANCH  11  21
ATOM     21  N   UNL     1      34.610 -34.586 -30.776  0.00  0.00    -0.279 N 
ATOM     22  C   UNL     1      35.891 -34.095 -30.929  0.00  0.00    +0.248 C 
ATOM     23  O   UNL     1      36.200 -32.917 -31.070  0.00  0.00    -0.270 OA
ATOM     24  H   UNL     1      34.541 -35.558 -30.640  0.00  0.00    +0.000 HD
BRANCH  22  25
ATOM     25  C   UNL     1      36.974 -35.118 -30.871  0.00  0.00    +0.037 A 
ATOM     26  C   UNL     1      36.992 -36.130 -29.901  0.00  0.00    -0.050 A 
ATOM     27  C   UNL     1      38.030 -37.065 -29.887  0.00  0.00    -0.061 A 
ATOM     28  C   UNL     1      39.045 -36.999 -30.842  0.00  0.00    -0.062 A 
ATOM     29  C   UNL     1      39.022 -36.005 -31.819  0.00  0.00    -0.061 A 
ATOM     30  C   UNL     1      37.987 -35.069 -31.838  0.00  0.00    -0.050 A 
ENDBRANCH  22  25
ENDBRANCH  11  21
BRANCH   1  32
ATOM     31  C   UNL     1      24.664 -28.562 -32.118  0.00  0.00    -0.049 C 
ATOM     32  C   UNL     1      24.863 -30.079 -32.339  0.00  0.00    +0.010 C 
BRANCH  32  33
ATOM     33  N   UNL     1      25.745 -30.132 -33.517  0.00  0.00    -0.305 N 
ATOM     34  C   UNL     1      25.790 -31.340 -34.311  0.00  0.00    -0.013 C 
ATOM     35  C   UNL     1      25.802 -28.917 -34.312  0.00  0.00    -0.013 C 
ATOM     36  H   UNL     1      26.634 -30.192 -33.020  0.00  0.00    +0.000 HD
ENDBRANCH  32  33
ENDBRANCH   1  32
TORSDOF 4
ENDMDL
MODEL 17
REMARK VINA RESULT:    -6.584     25.057     32.255
REMARK INTER + INTRA:          -8.774
REMARK INTER:                  -8.001
REMARK INTRA:                  -0.774
REMARK UNBOUND:                -0.651
REMARK  Name = cpd193.pdb
REMARK  9 active torsions:
REMARK  status: ('A' for Active; 'I' for Inactive)
REMARK    1  A    between atoms: C_1  and  C_2
REMARK    2  A    between atoms: C_2  and  C_3
REMARK    3  A    between atoms: C_2  and  N_32
REMARK    4  A    between atoms: C_13  and  N_14
REMARK    5  A    between atoms: C_15  and  C_17
REMARK    6  A    between atoms: C_25  and  C_26
REMARK    7  A    between atoms: C_30  and  C_31
REMARK    8  A    between atoms: N_32  and  C_33
REMARK    9  A    between atoms: N_32  and  C_34
REMARK                            x       y       z     vdW  Elec       q    Type
REMARK                         _______ _______ _______ _____ _____    ______ ____
ROOT
ATOM      1  C   UNL     1      61.010 -49.784 -46.661  0.00  0.00    -0.020 C 
ATOM      2  C   UNL     1      61.383 -48.483 -47.434  0.00  0.00    -0.048 C 
ATOM      3  C   UNL     1      60.363 -47.426 -47.032  0.00  0.00    -0.049 C 
ATOM      4  C   UNL     1      59.099 -48.263 -46.961  0.00  0.00    -0.032 C 
ATOM      5  C   UNL     1      57.829 -47.587 -46.415  0.00  0.00    -0.034 C 
ATOM      6  C   UNL     1      57.346 -46.492 -47.365  0.00  0.00    -0.049 C 
ATOM      7  C   UNL     1      56.114 -45.768 -46.842  0.00  0.00    -0.042 C 
ATOM      8  C   UNL     1      55.141 -46.641 -46.038  0.00  0.00    +0.029 C 
ATOM      9  C   UNL     1      53.733 -46.115 -46.287  0.00  0.00    +0.180 C 
ATOM     10  O   UNL     1      53.269 -45.163 -45.654  0.00  0.00    -0.290 OA
ATOM     11  C   UNL     1      52.925 -46.706 -47.410  0.00  0.00    +0.073 C 
ATOM     12  C   UNL     1      53.421 -47.758 -48.076  0.00  0.00    -0.059 C 
ATOM     13  C   UNL     1      54.706 -48.462 -47.745  0.00  0.00    -0.026 C 
ATOM     14  C   UNL     1      55.244 -48.160 -46.321  0.00  0.00    -0.016 C 
ATOM     15  C   UNL     1      54.347 -48.923 -45.297  0.00  0.00    -0.058 C 
ATOM     16  C   UNL     1      56.726 -48.647 -46.094  0.00  0.00    -0.032 C 
ATOM     17  C   UNL     1      57.039 -50.023 -46.728  0.00  0.00    -0.049 C 
ATOM     18  C   UNL     1      58.449 -50.588 -46.440  0.00  0.00    -0.047 C 
ATOM     19  C   UNL     1      59.526 -49.523 -46.167  0.00  0.00    -0.025 C 
ATOM     20  C   UNL     1      59.614 -49.261 -44.636  0.00  0.00    -0.059 C 
ENDROOT
BRANCH  11  21
ATOM     21  N   UNL     1      51.726 -46.068 -47.654  0.00  0.00    -0.279 N 
ATOM     22  C   UNL     1      50.442 -46.526 -47.437  0.00  0.00    +0.248 C 
ATOM     23  O   UNL     1      50.135 -47.604 -46.939  0.00  0.00    -0.270 OA
ATOM     24  H   UNL     1      51.796 -45.163 -48.035  0.00  0.00    +0.000 HD
BRANCH  22  25
ATOM     25  C   UNL     1      49.357 -45.579 -47.821  0.00  0.00    +0.037 A 
ATOM     26  C   UNL     1      48.212 -45.998 -48.512  0.00  0.00    -0.050 A 
ATOM     27  C   UNL     1      47.223 -45.071 -48.851  0.00  0.00    -0.061 A 
ATOM     28  C   UNL     1      47.368 -43.730 -48.496  0.00  0.00    -0.062 A 
ATOM     29  C   UNL     1      48.497 -43.311 -47.792  0.00  0.00    -0.061 A 
ATOM     30  C   UNL     1      49.488 -44.233 -47.451  0.00  0.00    -0.050 A 
ENDBRANCH  22  25
ENDBRANCH  11  21
BRANCH   1  32
ATOM     31  C   UNL     1      61.793 -50.709 -48.916  0.00  0.00    -0.049 C 
ATOM     32  C   UNL     1      61.352 -51.075 -47.480  0.00  0.00    +0.010 C 
BRANCH  32  33
ATOM     33  N   UNL     1      62.434 -51.958 -47.015  0.00  0.00    -0.305 N 
ATOM     34  C   UNL     1      63.738 -51.393 -46.742  0.00  0.00    -0.013 C 
ATOM     35  C   UNL     1      62.041 -52.985 -46.065  0.00  0.00    -0.013 C 
ATOM     36  H   UNL     1      62.611 -52.436 -47.899  0.00  0.00    +0.000 HD
ENDBRANCH  32  33
ENDBRANCH   1  32
TORSDOF 4
ENDMDL
MODEL 18
REMARK VINA RESULT:    -6.525     26.498     31.992
REMARK INTER + INTRA:          -8.702
REMARK INTER:                  -7.856
REMARK INTRA:                  -0.846
REMARK UNBOUND:                -0.651
REMARK  Name = cpd193.pdb
REMARK  9 active torsions:
REMARK  status: ('A' for Active; 'I' for Inactive)
REMARK    1  A    between atoms: C_1  and  C_2
REMARK    2  A    between atoms: C_2  and  C_3
REMARK    3  A    between atoms: C_2  and  N_32
REMARK    4  A    between atoms: C_13  and  N_14
REMARK    5  A    between atoms: C_15  and  C_17
REMARK    6  A    between atoms: C_25  and  C_26
REMARK    7  A    between atoms: C_30  and  C_31
REMARK    8  A    between atoms: N_32  and  C_33
REMARK    9  A    between atoms: N_32  and  C_34
REMARK                            x       y       z     vdW  Elec       q    Type
REMARK                         _______ _______ _______ _____ _____    ______ ____
ROOT
ATOM      1  C   UNL     1      51.673 -47.136 -46.985  0.00  0.00    -0.020 C 
ATOM      2  C   UNL     1      51.520 -48.503 -46.253  0.00  0.00    -0.048 C 
ATOM      3  C   UNL     1      52.796 -48.717 -45.449  0.00  0.00    -0.049 C 
ATOM      4  C   UNL     1      53.833 -48.166 -46.412  0.00  0.00    -0.032 C 
ATOM      5  C   UNL     1      55.280 -48.044 -45.904  0.00  0.00    -0.034 C 
ATOM      6  C   UNL     1      55.885 -49.424 -45.653  0.00  0.00    -0.049 C 
ATOM      7  C   UNL     1      57.304 -49.349 -45.108  0.00  0.00    -0.042 C 
ATOM      8  C   UNL     1      58.139 -48.173 -45.634  0.00  0.00    +0.029 C 
ATOM      9  C   UNL     1      59.590 -48.631 -45.706  0.00  0.00    +0.180 C 
ATOM     10  O   UNL     1      60.333 -48.608 -44.721  0.00  0.00    -0.290 OA
ATOM     11  C   UNL     1      60.100 -49.228 -46.990  0.00  0.00    +0.073 C 
ATOM     12  C   UNL     1      59.300 -49.225 -48.064  0.00  0.00    -0.059 C 
ATOM     13  C   UNL     1      57.936 -48.598 -48.124  0.00  0.00    -0.026 C 
ATOM     14  C   UNL     1      57.656 -47.584 -46.983  0.00  0.00    -0.016 C 
ATOM     15  C   UNL     1      58.469 -46.286 -47.283  0.00  0.00    -0.058 C 
ATOM     16  C   UNL     1      56.139 -47.167 -46.871  0.00  0.00    -0.032 C 
ATOM     17  C   UNL     1      55.445 -46.956 -48.238  0.00  0.00    -0.049 C 
ATOM     18  C   UNL     1      53.987 -46.444 -48.176  0.00  0.00    -0.047 C 
ATOM     19  C   UNL     1      53.224 -46.826 -46.894  0.00  0.00    -0.025 C 
ATOM     20  C   UNL     1      53.383 -45.688 -45.844  0.00  0.00    -0.059 C 
ENDROOT
BRANCH  11  21
ATOM     21  N   UNL     1      61.376 -49.748 -46.915  0.00  0.00    -0.279 N 
ATOM     22  C   UNL     1      61.772 -51.028 -46.583  0.00  0.00    +0.248 C 
ATOM     23  O   UNL     1      61.028 -51.967 -46.321  0.00  0.00    -0.270 OA
ATOM     24  H   UNL     1      62.103 -49.120 -47.129  0.00  0.00    +0.000 HD
BRANCH  22  25
ATOM     25  C   UNL     1      63.244 -51.260 -46.592  0.00  0.00    +0.037 A 
ATOM     26  C   UNL     1      64.156 -50.246 -46.921  0.00  0.00    -0.050 A 
ATOM     27  C   UNL     1      65.527 -50.513 -46.917  0.00  0.00    -0.061 A 
ATOM     28  C   UNL     1      65.992 -51.785 -46.581  0.00  0.00    -0.062 A 
ATOM     29  C   UNL     1      65.091 -52.791 -46.237  0.00  0.00    -0.061 A 
ATOM     30  C   UNL     1      63.720 -52.530 -46.238  0.00  0.00    -0.050 A 
ENDBRANCH  22  25
ENDBRANCH  11  21
BRANCH   1  32
ATOM     31  C   UNL     1      50.852 -48.559 -48.949  0.00  0.00    -0.049 C 
ATOM     32  C   UNL     1      50.947 -47.128 -48.373  0.00  0.00    +0.010 C 
BRANCH  32  33
ATOM     33  N   UNL     1      49.559 -46.642 -48.459  0.00  0.00    -0.305 N 
ATOM     34  C   UNL     1      48.492 -47.593 -48.683  0.00  0.00    -0.013 C 
ATOM     35  C   UNL     1      49.205 -45.588 -47.523  0.00  0.00    -0.013 C 
ATOM     36  H   UNL     1      49.624 -46.202 -49.377  0.00  0.00    +0.000 HD
ENDBRANCH  32  33
ENDBRANCH   1  32
TORSDOF 4
ENDMDL
MODEL 19
REMARK VINA RESULT:    -6.523     20.546     22.233
REMARK INTER + INTRA:          -8.699
REMARK INTER:                  -7.887
REMARK INTRA:                  -0.812
REMARK UNBOUND:                -0.651
REMARK  Name = cpd193.pdb
REMARK  9 active torsions:
REMARK  status: ('A' for Active; 'I' for Inactive)
REMARK    1  A    between atoms: C_1  and  C_2
REMARK    2  A    between atoms: C_2  and  C_3
REMARK    3  A    between atoms: C_2  and  N_32
REMARK    4  A    between atoms: C_13  and  N_14
REMARK    5  A    between atoms: C_15  and  C_17
REMARK    6  A    between atoms: C_25  and  C_26
REMARK    7  A    between atoms: C_30  and  C_31
REMARK    8  A    between atoms: N_32  and  C_33
REMARK    9  A    between atoms: N_32  and  C_34
REMARK                            x       y       z     vdW  Elec       q    Type
REMARK                         _______ _______ _______ _____ _____    ______ ____
ROOT
ATOM      1  C   UNL     1      40.870 -20.784 -35.477  0.00  0.00    -0.020 C 
ATOM      2  C   UNL     1      40.064 -19.455 -35.357  0.00  0.00    -0.048 C 
ATOM      3  C   UNL     1      40.645 -18.494 -36.386  0.00  0.00    -0.049 C 
ATOM      4  C   UNL     1      42.123 -18.822 -36.279  0.00  0.00    -0.032 C 
ATOM      5  C   UNL     1      43.071 -18.166 -37.297  0.00  0.00    -0.034 C 
ATOM      6  C   UNL     1      43.139 -16.656 -37.080  0.00  0.00    -0.049 C 
ATOM      7  C   UNL     1      44.036 -15.960 -38.093  0.00  0.00    -0.042 C 
ATOM      8  C   UNL     1      45.253 -16.776 -38.551  0.00  0.00    +0.029 C 
ATOM      9  C   UNL     1      46.386 -15.797 -38.836  0.00  0.00    +0.180 C 
ATOM     10  O   UNL     1      46.483 -15.207 -39.915  0.00  0.00    -0.290 OA
ATOM     11  C   UNL     1      47.352 -15.463 -37.732  0.00  0.00    +0.073 C 
ATOM     12  C   UNL     1      47.260 -16.128 -36.572  0.00  0.00    -0.059 C 
ATOM     13  C   UNL     1      46.305 -17.254 -36.295  0.00  0.00    -0.026 C 
ATOM     14  C   UNL     1      45.693 -17.892 -37.571  0.00  0.00    -0.016 C 
ATOM     15  C   UNL     1      46.800 -18.753 -38.256  0.00  0.00    -0.058 C 
ATOM     16  C   UNL     1      44.477 -18.850 -37.272  0.00  0.00    -0.032 C 
ATOM     17  C   UNL     1      44.671 -19.737 -36.019  0.00  0.00    -0.049 C 
ATOM     18  C   UNL     1      43.550 -20.767 -35.748  0.00  0.00    -0.047 C 
ATOM     19  C   UNL     1      42.165 -20.371 -36.293  0.00  0.00    -0.025 C 
ATOM     20  C   UNL     1      41.989 -20.959 -37.723  0.00  0.00    -0.059 C 
ENDROOT
BRANCH  11  21
ATOM     21  N   UNL     1      48.250 -14.461 -38.037  0.00  0.00    -0.279 N 
ATOM     22  C   UNL     1      48.305 -13.170 -37.551  0.00  0.00    +0.248 C 
ATOM     23  O   UNL     1      47.561 -12.686 -36.706  0.00  0.00    -0.270 OA
ATOM     24  H   UNL     1      48.946 -14.699 -38.691  0.00  0.00    +0.000 HD
BRANCH  22  25
ATOM     25  C   UNL     1      49.411 -12.333 -38.098  0.00  0.00    +0.037 A 
ATOM     26  C   UNL     1      50.393 -12.859 -38.948  0.00  0.00    -0.050 A 
ATOM     27  C   UNL     1      51.411 -12.034 -39.434  0.00  0.00    -0.061 A 
ATOM     28  C   UNL     1      51.447 -10.685 -39.081  0.00  0.00    -0.062 A 
ATOM     29  C   UNL     1      50.462 -10.153 -38.249  0.00  0.00    -0.061 A 
ATOM     30  C   UNL     1      49.443 -10.972 -37.762  0.00  0.00    -0.050 A 
ENDBRANCH  22  25
ENDBRANCH  11  21
BRANCH   1  32
ATOM     31  C   UNL     1      40.988 -20.500 -32.936  0.00  0.00    -0.049 C 
ATOM     32  C   UNL     1      41.006 -21.517 -34.100  0.00  0.00    +0.010 C 
BRANCH  32  33
ATOM     33  N   UNL     1      39.983 -22.497 -33.701  0.00  0.00    -0.305 N 
ATOM     34  C   UNL     1      39.028 -22.961 -34.685  0.00  0.00    -0.013 C 
ATOM     35  C   UNL     1      40.434 -23.543 -32.799  0.00  0.00    -0.013 C 
ATOM     36  H   UNL     1      39.400 -21.870 -33.146  0.00  0.00    +0.000 HD
ENDBRANCH  32  33
ENDBRANCH   1  32
TORSDOF 4
ENDMDL
MODEL 20
REMARK VINA RESULT:    -6.425     21.149     23.676
REMARK INTER + INTRA:          -8.578
REMARK INTER:                  -7.789
REMARK INTRA:                  -0.788
REMARK UNBOUND:                -0.651
REMARK  Name = cpd193.pdb
REMARK  9 active torsions:
REMARK  status: ('A' for Active; 'I' for Inactive)
REMARK    1  A    between atoms: C_1  and  C_2
REMARK    2  A    between atoms: C_2  and  C_3
REMARK    3  A    between atoms: C_2  and  N_32
REMARK    4  A    between atoms: C_13  and  N_14
REMARK    5  A    between atoms: C_15  and  C_17
REMARK    6  A    between atoms: C_25  and  C_26
REMARK    7  A    between atoms: C_30  and  C_31
REMARK    8  A    between atoms: N_32  and  C_33
REMARK    9  A    between atoms: N_32  and  C_34
REMARK                            x       y       z     vdW  Elec       q    Type
REMARK                         _______ _______ _______ _____ _____    ______ ____
ROOT
ATOM      1  C   UNL     1      47.945 -13.182 -41.808  0.00  0.00    -0.020 C 
ATOM      2  C   UNL     1      46.778 -12.278 -41.307  0.00  0.00    -0.048 C 
ATOM      3  C   UNL     1      46.422 -12.756 -39.906  0.00  0.00    -0.049 C 
ATOM      4  C   UNL     1      46.574 -14.257 -40.070  0.00  0.00    -0.032 C 
ATOM      5  C   UNL     1      46.457 -15.125 -38.806  0.00  0.00    -0.034 C 
ATOM      6  C   UNL     1      45.037 -15.081 -38.246  0.00  0.00    -0.049 C 
ATOM      7  C   UNL     1      44.887 -15.895 -36.969  0.00  0.00    -0.042 C 
ATOM      8  C   UNL     1      45.754 -17.159 -36.900  0.00  0.00    +0.029 C 
ATOM      9  C   UNL     1      44.985 -18.205 -36.102  0.00  0.00    +0.180 C 
ATOM     10  O   UNL     1      45.003 -18.229 -34.868  0.00  0.00    -0.290 OA
ATOM     11  C   UNL     1      44.096 -19.170 -36.836  0.00  0.00    +0.073 C 
ATOM     12  C   UNL     1      44.102 -19.160 -38.176  0.00  0.00    -0.059 C 
ATOM     13  C   UNL     1      44.993 -18.303 -39.030  0.00  0.00    -0.026 C 
ATOM     14  C   UNL     1      46.212 -17.710 -38.273  0.00  0.00    -0.016 C 
ATOM     15  C   UNL     1      47.237 -18.862 -38.035  0.00  0.00    -0.058 C 
ATOM     16  C   UNL     1      46.961 -16.580 -39.079  0.00  0.00    -0.032 C 
ATOM     17  C   UNL     1      47.098 -16.874 -40.592  0.00  0.00    -0.049 C 
ATOM     18  C   UNL     1      47.918 -15.844 -41.403  0.00  0.00    -0.047 C 
ATOM     19  C   UNL     1      47.921 -14.419 -40.819  0.00  0.00    -0.025 C 
ATOM     20  C   UNL     1      49.148 -14.252 -39.877  0.00  0.00    -0.059 C 
ENDROOT
BRANCH  11  21
ATOM     21  N   UNL     1      43.329 -19.979 -36.023  0.00  0.00    -0.279 N 
ATOM     22  C   UNL     1      41.975 -19.913 -35.764  0.00  0.00    +0.248 C 
ATOM     23  O   UNL     1      41.185 -19.116 -36.258  0.00  0.00    -0.270 OA
ATOM     24  H   UNL     1      43.814 -20.703 -35.566  0.00  0.00    +0.000 HD
BRANCH  22  25
ATOM     25  C   UNL     1      41.457 -20.947 -34.823  0.00  0.00    +0.037 A 
ATOM     26  C   UNL     1      41.845 -20.990 -33.477  0.00  0.00    -0.050 A 
ATOM     27  C   UNL     1      41.333 -21.981 -32.634  0.00  0.00    -0.061 A 
ATOM     28  C   UNL     1      40.430 -22.922 -33.129  0.00  0.00    -0.062 A 
ATOM     29  C   UNL     1      40.028 -22.873 -34.462  0.00  0.00    -0.061 A 
ATOM     30  C   UNL     1      40.535 -21.885 -35.308  0.00  0.00    -0.050 A 
ENDBRANCH  22  25
ENDBRANCH  11  21
BRANCH   1  32
ATOM     31  C   UNL     1      46.996 -12.345 -44.034  0.00  0.00    -0.049 C 
ATOM     32  C   UNL     1      47.890 -13.409 -43.357  0.00  0.00    +0.010 C 
BRANCH  32  33
ATOM     33  N   UNL     1      49.136 -13.345 -44.140  0.00  0.00    -0.305 N 
ATOM     34  C   UNL     1      50.398 -13.600 -43.479  0.00  0.00    -0.013 C 
ATOM     35  C   UNL     1      49.063 -13.902 -45.480  0.00  0.00    -0.013 C 
ATOM     36  H   UNL     1      49.176 -12.332 -44.250  0.00  0.00    +0.000 HD
ENDBRANCH  32  33
ENDBRANCH   1  32
TORSDOF 4
ENDMDL
