@<TRIPOS>MOLECULE
*****
 34 38 0 0 0
SMALL
GASTEIGER

@<TRIPOS>ATOM
      1 C          -1.6967    1.9575    0.0000 C.3     1  UNL1        0.0173
      2 C          -0.8489    1.4683    0.0000 C.3     1  UNL1        0.0576
      3 C          -0.8486    0.4896    0.0000 C.3     1  UNL1        0.0147
      4 C          -1.6958   -0.0005    0.0000 C.3     1  UNL1        0.0013
      5 C          -1.6955   -0.9796    0.0000 C.3     1  UNL1        0.0000
      6 C           0.0003   -0.9791    0.0000 C.3     1  UNL1        0.0000
      7 C           0.8489   -1.4687    0.0000 C.3     1  UNL1        0.0000
      8 C           0.8492   -2.4485    0.0000 C.3     1  UNL1        0.0004
      9 C           1.6978   -2.9381    0.0000 C.3     1  UNL1        0.0077
     10 C           2.5462   -2.4480    0.0000 C.3     1  UNL1        0.0636
     11 C           3.3942   -2.9376    0.0000 C.2     1  UNL1        0.1875
     12 O           3.3945   -3.9456    0.0000 O.2     1  UNL1       -0.2900
     13 C           4.2420   -2.4475    0.0000 C.2     1  UNL1        0.1040
     14 N           5.0903   -2.9368    0.0000 N.am    1  UNL1       -0.1729
     15 C           5.7452   -2.2088    0.0000 C.2     1  UNL1        0.2690
     16 O           5.4422   -1.2776    0.0000 O.2     1  UNL1       -0.2680
     17 C           6.7031   -2.4119    0.0000 C.ar    1  UNL1        0.0554
     18 C           7.0061   -3.3431    0.0000 C.ar    1  UNL1        0.0046
     19 C           7.9640   -3.5463    0.0000 C.ar    1  UNL1        0.0001
     20 C           8.6190   -2.8183    0.0000 C.ar    1  UNL1        0.0000
     21 C           8.3160   -1.8871    0.0000 C.ar    1  UNL1        0.0001
     22 C           7.3580   -1.6839    0.0000 C.ar    1  UNL1        0.0046
     23 C           4.2417   -1.4678    0.0000 C.2     1  UNL1       -0.0066
     24 C           3.3937   -0.9782    0.0000 C.3     1  UNL1        0.0279
     25 C           2.5459   -1.4683    0.0000 C.3     1  UNL1        0.0110
     26 C           2.5456   -0.4683    0.0000 C.3     1  UNL1        0.0008
     27 C           1.6973   -0.9786    0.0000 C.3     1  UNL1        0.0007
     28 C           1.6970    0.0005    0.0000 C.3     1  UNL1        0.0000
     29 C           0.8484    0.4901    0.0000 C.3     1  UNL1        0.0000
     30 C           0.0000   -0.0000    0.0000 C.3     1  UNL1        0.0012
     31 C          -0.0003    1.0000    0.0000 C.3     1  UNL1        0.0000
     32 N          -0.0015    1.9579    0.0000 N.3     1  UNL1       -0.2716
     33 C           0.8463    1.4688    0.0000 C.3     1  UNL1        0.0896
     34 C          -0.0017    2.9367    0.0000 C.3     1  UNL1        0.0896
@<TRIPOS>BOND
     1     1     2    1
     2     2     3    1
     3     3     4    1
     4     4     5    1
     5     5     6    1
     6     6     7    1
     7     7     8    1
     8     8     9    1
     9     9    10    1
    10    10    11    1
    11    11    12    2
    12    11    13    1
    13    13    14    1
    14    14    15   am
    15    15    16    2
    16    15    17    1
    17    17    18   ar
    18    18    19   ar
    19    19    20   ar
    20    20    21   ar
    21    21    22   ar
    22    17    22   ar
    23    13    23    2
    24    23    24    1
    25    24    25    1
    26    10    25    1
    27    25    26    1
    28    25    27    1
    29     7    27    1
    30    27    28    1
    31    28    29    1
    32    29    30    1
    33     3    30    1
    34     6    30    1
    35    30    31    1
    36     2    32    1
    37    32    33    1
    38    32    34    1
