REMARK  Name = cpd193.pdb
REMARK  9 active torsions:
REMARK  status: ('A' for Active; 'I' for Inactive)
REMARK    1  A    between atoms: C_1  and  C_2
REMARK    2  A    between atoms: C_2  and  C_3
REMARK    3  A    between atoms: C_2  and  N_32
REMARK    4  A    between atoms: C_13  and  N_14
REMARK    5  A    between atoms: C_15  and  C_17
REMARK    6  A    between atoms: C_25  and  C_26
REMARK    7  A    between atoms: C_30  and  C_31
REMARK    8  A    between atoms: N_32  and  C_33
REMARK    9  A    between atoms: N_32  and  C_34
REMARK                            x       y       z     vdW  Elec       q    Type
REMARK                         _______ _______ _______ _____ _____    ______ ____
ROOT
ATOM      1  C   UNL     1      -2.364   1.101  -0.120  0.00  0.00    -0.020 C 
ATOM      2  C   UNL     1      -2.732  -0.166  -0.950  0.00  0.00    -0.048 C 
ATOM      3  C   UNL     1      -1.834  -1.292  -0.455  0.00  0.00    -0.049 C 
ATOM      4  C   UNL     1      -0.534  -0.541  -0.231  0.00  0.00    -0.032 C 
ATOM      5  C   UNL     1       0.620  -1.304   0.441  0.00  0.00    -0.034 C 
ATOM      6  C   UNL     1       1.134  -2.420  -0.467  0.00  0.00    -0.049 C 
ATOM      7  C   UNL     1       2.251  -3.229   0.177  0.00  0.00    -0.042 C 
ATOM      8  C   UNL     1       3.183  -2.429   1.098  0.00  0.00    +0.029 C 
ATOM      9  C   UNL     1       4.573  -3.045   0.997  0.00  0.00    +0.180 C 
ATOM     10  O   UNL     1       4.901  -4.031   1.663  0.00  0.00    -0.290 OA
ATOM     11  C   UNL     1       5.537  -2.499  -0.020  0.00  0.00    +0.073 C 
ATOM     12  C   UNL     1       5.188  -1.411  -0.720  0.00  0.00    -0.059 C 
ATOM     13  C   UNL     1       3.922  -0.626  -0.522  0.00  0.00    -0.026 C 
ATOM     14  C   UNL     1       3.211  -0.904   0.829  0.00  0.00    -0.016 C 
ATOM     15  C   UNL     1       4.036  -0.211   1.958  0.00  0.00    -0.058 C 
ATOM     16  C   UNL     1       1.747  -0.322   0.899  0.00  0.00    -0.032 C 
ATOM     17  C   UNL     1       1.597   1.077   0.256  0.00  0.00    -0.049 C 
ATOM     18  C   UNL     1       0.203   1.732   0.395  0.00  0.00    -0.047 C 
ATOM     19  C   UNL     1      -0.965   0.738   0.530  0.00  0.00    -0.025 C 
ATOM     20  C   UNL     1      -1.239   0.469   2.038  0.00  0.00    -0.059 C 
ENDROOT
BRANCH  11  21
ATOM     21  N   UNL     1       6.712  -3.212  -0.140  0.00  0.00    -0.279 N 
ATOM     22  C   UNL     1       7.814  -2.940  -0.926  0.00  0.00    +0.248 C 
ATOM     23  O   UNL     1       7.958  -1.963  -1.652  0.00  0.00    -0.270 OA
ATOM     24  H   UNL     1       6.773  -4.026   0.410  0.00  0.00    +0.000 HD
BRANCH  22  25
ATOM     25  C   UNL     1       8.926  -3.928  -0.824  0.00  0.00    +0.037 A 
ATOM     26  C   UNL     1       8.692  -5.293  -0.607  0.00  0.00    -0.050 A 
ATOM     27  C   UNL     1       9.768  -6.180  -0.517  0.00  0.00    -0.061 A 
ATOM     28  C   UNL     1      11.075  -5.711  -0.650  0.00  0.00    -0.062 A 
ATOM     29  C   UNL     1      11.312  -4.357  -0.883  0.00  0.00    -0.061 A 
ATOM     30  C   UNL     1      10.241  -3.467  -0.975  0.00  0.00    -0.050 A 
ENDBRANCH  22  25
ENDBRANCH  11  21
BRANCH   1  32
ATOM     31  C   UNL     1      -3.893   2.438  -1.679  0.00  0.00    -0.049 C 
ATOM     32  C   UNL     1      -2.529   2.418  -0.952  0.00  0.00    +0.010 C 
BRANCH  32  33
ATOM     33  N   UNL     1      -2.502   3.717  -0.259  0.00  0.00    -0.305 N 
ATOM     34  C   UNL     1      -2.700   3.756   1.174  0.00  0.00    -0.013 C 
ATOM     35  C   UNL     1      -1.498   4.657  -0.728  0.00  0.00    -0.013 C 
ATOM     36  H   UNL     1      -3.401   4.067  -0.589  0.00  0.00    +0.000 HD
ENDBRANCH  32  33
ENDBRANCH   1  32
TORSDOF 4
