REMARK  Name = cpd33.pdb
REMARK  15 active torsions:
REMARK  status: ('A' for Active; 'I' for Inactive)
REMARK    1  A    between atoms: C_1  and  C_2
REMARK    2  A    between atoms: C_6  and  N_7
REMARK    3  A    between atoms: N_7  and  C_8
REMARK    4  A    between atoms: C_13  and  C_14
REMARK    5  A    between atoms: N_16  and  C_17
REMARK    6  A    between atoms: C_17  and  C_18
REMARK    7  A    between atoms: C_18  and  C_19
REMARK    8  A    between atoms: C_19  and  C_20
REMARK    9  A    between atoms: N_22  and  C_23
REMARK   10  A    between atoms: C_23  and  C_24
REMARK   11  A    between atoms: C_24  and  C_25
REMARK   12  A    between atoms: C_25  and  C_26
REMARK   13  A    between atoms: C_26  and  N_27
REMARK   14  A    between atoms: N_27  and  C_28
REMARK   15  A    between atoms: C_42  and  C_43
REMARK                            x       y       z     vdW  Elec       q    Type
REMARK                         _______ _______ _______ _____ _____    ______ ____
ROOT
ATOM      1  C   UNL A   1      -6.259  -4.005   1.130  0.00  0.00    +0.213 C 
ATOM      2  O   UNL A   1      -6.921  -3.722   2.123  0.00  0.00    -0.276 OA
ATOM      3  N   UNL A   1      -6.703  -4.849   0.138  0.00  0.00    -0.315 N 
ATOM      4  H   UNL A   1      -6.104  -5.046  -0.618  0.00  0.00    +0.000 HD
ENDROOT
BRANCH   1   5
ATOM      5  C   UNL A   1      -4.864  -3.459   0.906  0.00  0.00    +0.025 C 
BRANCH   5   6
ATOM      6  C   UNL A   1      -4.736  -2.743  -0.441  0.00  0.00    -0.029 C 
BRANCH   6   7
ATOM      7  C   UNL A   1      -3.446  -1.941  -0.556  0.00  0.00    +0.012 C 
BRANCH   7  10
ATOM      8  C   UNL A   1      -1.303  -2.621   0.462  0.00  0.00    +0.246 C 
ATOM      9  O   UNL A   1      -1.377  -1.797   1.367  0.00  0.00    -0.270 OA
ATOM     10  N   UNL A   1      -2.275  -2.794  -0.502  0.00  0.00    -0.311 N 
ATOM     11  H   UNL A   1      -2.171  -3.512  -1.167  0.00  0.00    +0.000 HD
BRANCH   8  17
ATOM     12  C   UNL A   1       1.179  -2.923   0.623  0.00  0.00    +0.044 A 
ATOM     13  C   UNL A   1       2.307  -3.744   0.484  0.00  0.00    -0.040 A 
ATOM     14  C   UNL A   1       2.182  -5.078   0.088  0.00  0.00    -0.060 A 
ATOM     15  C   UNL A   1       0.924  -5.613  -0.180  0.00  0.00    -0.061 A 
ATOM     16  C   UNL A   1      -0.213  -4.813  -0.059  0.00  0.00    -0.048 A 
ATOM     17  C   UNL A   1      -0.089  -3.470   0.331  0.00  0.00    +0.058 A 
BRANCH  12  18
ATOM     18  N   UNL A   1       1.330  -1.561   0.986  0.00  0.00    -0.314 N 
ATOM     19  H   UNL A   1       0.919  -1.298   1.841  0.00  0.00    +0.000 HD
BRANCH  18  25
ATOM     20  C   UNL A   1       2.605   3.266   0.557  0.00  0.00    -0.039 C 
ATOM     21  C   UNL A   1       2.631   1.838   0.082  0.00  0.00    -0.046 A 
ATOM     22  C   UNL A   1       3.328   1.539  -1.097  0.00  0.00    -0.058 A 
ATOM     23  C   UNL A   1       3.376   0.237  -1.581  0.00  0.00    -0.060 A 
ATOM     24  C   UNL A   1       2.717  -0.783  -0.899  0.00  0.00    -0.040 A 
ATOM     25  C   UNL A   1       1.997  -0.525   0.277  0.00  0.00    +0.035 A 
ATOM     26  C   UNL A   1       1.993   0.795   0.799  0.00  0.00    -0.026 A 
ATOM     27  C   UNL A   1       1.254   1.093   2.084  0.00  0.00    -0.038 C 
ENDBRANCH  18  25
ENDBRANCH  12  18
ENDBRANCH   8  17
ENDBRANCH   7  10
ENDBRANCH   6   7
ENDBRANCH   5   6
ENDBRANCH   1   5
BRANCH   3  28
ATOM     28  C   UNL A   1      -8.017  -5.459   0.163  0.00  0.00    +0.012 C 
BRANCH  28  29
ATOM     29  C   UNL A   1      -9.138  -4.430   0.031  0.00  0.00    -0.036 C 
BRANCH  29  30
ATOM     30  C   UNL A   1     -10.432  -5.069  -0.469  0.00  0.00    -0.036 C 
BRANCH  30  31
ATOM     31  C   UNL A   1     -11.608  -4.094  -0.377  0.00  0.00    +0.009 C 
BRANCH  31  32
ATOM     32  N   UNL A   1     -12.700  -4.569  -1.241  0.00  0.00    -0.343 N 
ATOM     33  H   UNL A   1     -12.578  -5.206  -1.982  0.00  0.00    +0.000 HD
BRANCH  32  34
ATOM     34  C   UNL A   1     -13.958  -3.998  -0.879  0.00  0.00    +0.041 A 
ATOM     35  C   UNL A   1     -14.862  -4.733  -0.082  0.00  0.00    -0.005 A 
ATOM     36  C   UNL A   1     -16.058  -4.110   0.283  0.00  0.00    +0.047 A 
ATOM     37  N   UNL A   1     -16.354  -2.828  -0.035  0.00  0.00    -0.251 NA
ATOM     38  C   UNL A   1     -15.488  -2.124  -0.775  0.00  0.00    +0.073 A 
ATOM     39  C   UNL A   1     -15.817  -0.814  -1.096  0.00  0.00    -0.036 A 
ATOM     40  C   UNL A   1     -14.987  -0.013  -1.883  0.00  0.00    -0.060 A 
ATOM     41  C   UNL A   1     -13.800  -0.534  -2.375  0.00  0.00    -0.061 A 
ATOM     42  C   UNL A   1     -13.450  -1.847  -2.063  0.00  0.00    -0.051 A 
ATOM     43  C   UNL A   1     -14.272  -2.659  -1.242  0.00  0.00    +0.021 A 
ATOM     44  C   UNL A   1     -17.097  -4.811   1.120  0.00  0.00    -0.010 C 
ATOM     45  C   UNL A   1     -16.967  -6.329   1.089  0.00  0.00    -0.047 C 
ATOM     46  C   UNL A   1     -15.529  -6.722   1.382  0.00  0.00    -0.049 C 
ATOM     47  C   UNL A   1     -14.591  -6.167   0.310  0.00  0.00    -0.024 C 
ENDBRANCH  32  34
ENDBRANCH  31  32
ENDBRANCH  30  31
ENDBRANCH  29  30
ENDBRANCH  28  29
ENDBRANCH   3  28
TORSDOF 13
