REMARK  Name = cpd4.pdb
REMARK  3 active torsions:
REMARK  status: ('A' for Active; 'I' for Inactive)
REMARK    1  A    between atoms: C_1  and  C_2
REMARK    2  A    between atoms: C_6  and  C_7
REMARK    3  A    between atoms: C_9  and  N_10
REMARK                            x       y       z     vdW  Elec       q    Type
REMARK                         _______ _______ _______ _____ _____    ______ ____
ROOT
ATOM      1  C   UNL     1       0.265  -1.291  -3.008  0.00  0.00    -0.046 C 
ATOM      2  C   UNL     1      -0.071   0.069  -2.484  0.00  0.00    -0.085 C 
ATOM      3  C   UNL     1       0.096   0.550  -1.232  0.00  0.00    -0.042 C 
ATOM      4  C   UNL     1       0.688  -0.245  -0.079  0.00  0.00    +0.006 C 
ATOM      5  C   UNL     1       1.774   0.516   0.650  0.00  0.00    -0.077 C 
ATOM      6  C   UNL     1       1.911   1.852   0.598  0.00  0.00    -0.074 C 
ATOM      7  C   UNL     1       2.999   2.583   1.325  0.00  0.00    -0.044 C 
ATOM      8  C   UNL     1       0.955   2.694  -0.216  0.00  0.00    -0.006 C 
ATOM      9  C   UNL     1      -0.318   1.944  -0.747  0.00  0.00    +0.069 C 
ATOM     10  C   UNL     1      -1.349   1.801   0.379  0.00  0.00    -0.008 C 
ATOM     11  C   UNL     1      -2.412   2.594   0.609  0.00  0.00    -0.068 C 
ATOM     12  C   UNL     1      -3.337   2.398   1.767  0.00  0.00    +0.045 C 
ATOM     13  C   UNL     1      -2.694   1.545   2.851  0.00  0.00    +0.240 C 
ATOM     14  O   UNL     1      -2.974   1.730   4.033  0.00  0.00    -0.273 OA
ATOM     15  N   UNL     1      -1.885   0.513   2.442  0.00  0.00    -0.185 NA
ATOM     16  C   UNL     1      -1.255   0.625   1.314  0.00  0.00    +0.040 C 
ATOM     17  C   UNL     1      -0.443  -0.591   0.882  0.00  0.00    -0.002 C 
ENDROOT
BRANCH   9  18
ATOM     18  N   UNL     1      -0.874   2.764  -1.848  0.00  0.00    -0.317 N 
ATOM     19  H   UNL     1      -0.180   2.852  -2.590  0.00  0.00    +0.000 HD
ATOM     20  H   UNL     1      -1.113   3.690  -1.495  0.00  0.00    +0.000 HD
ATOM     21  H   UNL     1      -1.712   2.314  -2.217  0.00  0.00    +0.000 HD
ENDBRANCH   9  18
TORSDOF 1
