@<TRIPOS>MOLECULE
*****
 18 20 0 0 0
SMALL
GASTEIGER

@<TRIPOS>ATOM
      1 C          -1.3035   -0.3487    0.0000 C.3     1  UNL1        0.0301
      2 C          -0.8263    0.4774    0.0000 C.2     1  UNL1       -0.0323
      3 C          -0.0000    0.9543    0.0000 C.2     1  UNL1       -0.0247
      4 C           0.8262    0.4768    0.0000 C.3     1  UNL1        0.0468
      5 C           1.6527    0.9537    0.0000 C.2     1  UNL1       -0.0304
      6 C           1.6529    1.9082    0.0000 C.2     1  UNL1       -0.0458
      7 C           2.4793    2.3852    0.0000 C.3     1  UNL1        0.0261
      8 C           0.8266    2.3853    0.0000 C.3     1  UNL1        0.0474
      9 C           0.0001    1.9083    0.0000 C.3     1  UNL1        0.1155
     10 N           0.0003    2.8625    0.0000 N.3     1  UNL1       -0.1254
     11 C          -0.8261    1.4315    0.0000 C.ar    1  UNL1        0.0111
     12 C          -1.6523    1.9089    0.0000 C.ar    1  UNL1        0.0035
     13 C          -2.4788    1.4322    0.0000 C.ar    1  UNL1        0.0623
     14 C          -2.4792    0.4780    0.0000 C.ar    1  UNL1        0.2790
     15 O          -3.3057    0.0012    0.0000 O.2     1  UNL1       -0.2652
     16 N          -1.6530    0.0006    0.0000 N.ar    1  UNL1       -0.2125
     17 C          -0.8265    0.4773    0.0000 C.ar    1  UNL1        0.0605
     18 C           0.0000   -0.0000    0.0000 C.3     1  UNL1        0.0540
@<TRIPOS>BOND
     1     1     2    1
     2     2     3    2
     3     3     4    1
     4     4     5    1
     5     5     6    2
     6     6     7    1
     7     6     8    1
     8     8     9    1
     9     3     9    1
    10     9    10    1
    11     9    11    1
    12    11    12   ar
    13    12    13   ar
    14    13    14   ar
    15    14    15    2
    16    14    16   ar
    17    16    17   ar
    18    11    17   ar
    19    17    18    1
    20     4    18    1
