REMARK  Name = cpd326.pdb
REMARK  5 active torsions:
REMARK  status: ('A' for Active; 'I' for Inactive)
REMARK    1  A    between atoms: C_2  and  C_3
REMARK    2  A    between atoms: C_2  and  C_19
REMARK    3  A    between atoms: C_4  and  C_5
REMARK    4  A    between atoms: N_9  and  C_10
REMARK    5  A    between atoms: C_10  and  C_11
REMARK                            x       y       z     vdW  Elec       q    Type
REMARK                         _______ _______ _______ _____ _____    ______ ____
ROOT
ATOM      1  C   UNL A   1       1.806  -1.831   0.760  0.00  0.00    -0.011 C 
ATOM      2  C   UNL A   1       2.155  -0.614   0.314  0.00  0.00    -0.049 C 
ENDROOT
BRANCH   2   3
ATOM      3  C   UNL A   1       3.390   0.074   0.713  0.00  0.00    -0.009 A 
ATOM      4  C   UNL A   1       4.602  -0.598   0.876  0.00  0.00    -0.052 A 
ATOM      5  C   UNL A   1       5.744   0.109   1.235  0.00  0.00    -0.045 A 
ATOM      6  C   UNL A   1       5.668   1.483   1.416  0.00  0.00    +0.005 A 
ATOM      7  N   UNL A   1       4.498   2.138   1.232  0.00  0.00    -0.348 N 
ATOM      8  C   UNL A   1       3.375   1.461   0.889  0.00  0.00    +0.012 A 
BRANCH   7   9
ATOM      9  C   UNL A   1       4.442   3.611   1.432  0.00  0.00    +0.049 C 
BRANCH   9  10
ATOM     10  C   UNL A   1       5.143   4.339   0.312  0.00  0.00    -0.014 A 
ATOM     11  C   UNL A   1       4.561   4.323  -0.971  0.00  0.00    -0.056 A 
ATOM     12  C   UNL A   1       5.173   4.969  -2.047  0.00  0.00    -0.061 A 
ATOM     13  C   UNL A   1       6.373   5.646  -1.861  0.00  0.00    -0.061 A 
ATOM     14  C   UNL A   1       6.962   5.681  -0.600  0.00  0.00    -0.047 A 
ATOM     15  C   UNL A   1       6.354   5.034   0.481  0.00  0.00    +0.023 A 
ATOM     16 BR   UNL A   1       7.247   5.146   2.154  0.00  0.00    -0.050 Br
ENDBRANCH   9  10
ENDBRANCH   7   9
ENDBRANCH   2   3
BRANCH   1  18
ATOM     17  O   UNL A   1       0.662  -3.815   0.403  0.00  0.00    -0.284 OA
ATOM     18  C   UNL A   1       0.576  -2.587   0.364  0.00  0.00    +0.221 C 
BRANCH  18  19
ATOM     19  C   UNL A   1      -0.641  -1.903  -0.024  0.00  0.00    +0.176 A 
ATOM     20  C   UNL A   1      -1.805  -2.412  -0.573  0.00  0.00    -0.005 A 
ATOM     21  C   UNL A   1      -2.707  -1.329  -0.722  0.00  0.00    +0.022 A 
ATOM     22  C   UNL A   1      -4.018  -1.173  -1.205  0.00  0.00    -0.037 A 
ATOM     23  C   UNL A   1      -4.588   0.106  -1.174  0.00  0.00    +0.019 A 
ATOM     24 BR   UNL A   1      -6.352   0.345  -1.819  0.00  0.00    -0.050 Br
ATOM     25  C   UNL A   1      -3.887   1.208  -0.677  0.00  0.00    -0.044 A 
ATOM     26  C   UNL A   1      -2.581   1.068  -0.192  0.00  0.00    -0.018 A 
ATOM     27  C   UNL A   1      -2.036  -0.213  -0.236  0.00  0.00    +0.136 A 
ATOM     28  O   UNL A   1      -0.788  -0.557   0.187  0.00  0.00    -0.452 OA
ENDBRANCH  18  19
ENDBRANCH   1  18
TORSDOF 5
