MODEL 1
REMARK VINA RESULT:    -8.404      0.000      0.000
REMARK INTER + INTRA:         -11.695
REMARK INTER:                 -10.861
REMARK INTRA:                  -0.835
REMARK UNBOUND:                -0.835
REMARK  Name = cpd326.pdb
REMARK  5 active torsions:
REMARK  status: ('A' for Active; 'I' for Inactive)
REMARK    1  A    between atoms: C_2  and  C_3
REMARK    2  A    between atoms: C_2  and  C_19
REMARK    3  A    between atoms: C_4  and  C_5
REMARK    4  A    between atoms: N_9  and  C_10
REMARK    5  A    between atoms: C_10  and  C_11
REMARK                            x       y       z     vdW  Elec       q    Type
REMARK                         _______ _______ _______ _____ _____    ______ ____
ROOT
ATOM      1  C   UNL A   1      37.165 -35.395 -31.476  0.00  0.00    -0.011 C 
ATOM      2  C   UNL A   1      36.433 -34.565 -30.716  0.00  0.00    -0.049 C 
ENDROOT
BRANCH   2   3
ATOM      3  C   UNL A   1      35.019 -34.796 -30.392  0.00  0.00    -0.009 A 
ATOM      4  C   UNL A   1      34.187 -33.785 -29.909  0.00  0.00    -0.052 A 
ATOM      5  C   UNL A   1      32.851 -34.057 -29.638  0.00  0.00    -0.045 A 
ATOM      6  C   UNL A   1      32.354 -35.333 -29.864  0.00  0.00    +0.005 A 
ATOM      7  N   UNL A   1      33.155 -36.306 -30.357  0.00  0.00    -0.348 N 
ATOM      8  C   UNL A   1      34.462 -36.058 -30.619  0.00  0.00    +0.012 A 
BRANCH   7   9
ATOM      9  C   UNL A   1      32.599 -37.666 -30.590  0.00  0.00    +0.049 C 
BRANCH   9  10
ATOM     10  C   UNL A   1      33.686 -38.712 -30.554  0.00  0.00    -0.014 A 
ATOM     11  C   UNL A   1      34.227 -39.165 -31.773  0.00  0.00    -0.056 A 
ATOM     12  C   UNL A   1      35.225 -40.141 -31.799  0.00  0.00    -0.061 A 
ATOM     13  C   UNL A   1      35.706 -40.677 -30.609  0.00  0.00    -0.061 A 
ATOM     14  C   UNL A   1      35.191 -40.238 -29.393  0.00  0.00    -0.047 A 
ATOM     15  C   UNL A   1      34.189 -39.262 -29.361  0.00  0.00    +0.023 A 
ATOM     16 BR   UNL A   1      33.561 -38.740 -27.646  0.00  0.00    -0.050 Br
ENDBRANCH   9  10
ENDBRANCH   7   9
ENDBRANCH   2   3
BRANCH   1  18
ATOM     17  O   UNL A   1      38.902 -34.208 -32.449  0.00  0.00    -0.284 OA
ATOM     18  C   UNL A   1      38.614 -35.222 -31.813  0.00  0.00    +0.221 C 
BRANCH  18  19
ATOM     19  C   UNL A   1      39.609 -36.188 -31.395  0.00  0.00    +0.176 A 
ATOM     20  C   UNL A   1      40.784 -36.573 -32.017  0.00  0.00    -0.005 A 
ATOM     21  C   UNL A   1      41.417 -37.517 -31.170  0.00  0.00    +0.022 A 
ATOM     22  C   UNL A   1      42.603 -38.270 -31.215  0.00  0.00    -0.037 A 
ATOM     23  C   UNL A   1      42.893 -39.116 -30.137  0.00  0.00    +0.019 A 
ATOM     24 BR   UNL A   1      44.484 -40.142 -30.172  0.00  0.00    -0.050 Br
ATOM     25  C   UNL A   1      42.038 -39.218 -29.037  0.00  0.00    -0.044 A 
ATOM     26  C   UNL A   1      40.853 -38.474 -28.977  0.00  0.00    -0.018 A 
ATOM     27  C   UNL A   1      40.587 -37.643 -30.062  0.00  0.00    +0.136 A 
ATOM     28  O   UNL A   1      39.494 -36.841 -30.195  0.00  0.00    -0.452 OA
ENDBRANCH  18  19
ENDBRANCH   1  18
TORSDOF 5
ENDMDL
MODEL 2
REMARK VINA RESULT:    -8.272      2.548      4.329
REMARK INTER + INTRA:         -11.525
REMARK INTER:                 -11.109
REMARK INTRA:                  -0.416
REMARK UNBOUND:                -0.835
REMARK  Name = cpd326.pdb
REMARK  5 active torsions:
REMARK  status: ('A' for Active; 'I' for Inactive)
REMARK    1  A    between atoms: C_2  and  C_3
REMARK    2  A    between atoms: C_2  and  C_19
REMARK    3  A    between atoms: C_4  and  C_5
REMARK    4  A    between atoms: N_9  and  C_10
REMARK    5  A    between atoms: C_10  and  C_11
REMARK                            x       y       z     vdW  Elec       q    Type
REMARK                         _______ _______ _______ _____ _____    ______ ____
ROOT
ATOM      1  C   UNL A   1      37.984 -35.607 -31.826  0.00  0.00    -0.011 C 
ATOM      2  C   UNL A   1      37.376 -35.561 -30.630  0.00  0.00    -0.049 C 
ENDROOT
BRANCH   2   3
ATOM      3  C   UNL A   1      35.921 -35.662 -30.454  0.00  0.00    -0.009 A 
ATOM      4  C   UNL A   1      35.342 -36.219 -29.314  0.00  0.00    -0.052 A 
ATOM      5  C   UNL A   1      33.958 -36.269 -29.193  0.00  0.00    -0.045 A 
ATOM      6  C   UNL A   1      33.165 -35.750 -30.206  0.00  0.00    +0.005 A 
ATOM      7  N   UNL A   1      33.727 -35.185 -31.300  0.00  0.00    -0.348 N 
ATOM      8  C   UNL A   1      35.075 -35.137 -31.435  0.00  0.00    +0.012 A 
BRANCH   7   9
ATOM      9  C   UNL A   1      32.856 -34.636 -32.374  0.00  0.00    +0.049 C 
BRANCH   9  10
ATOM     10  C   UNL A   1      31.919 -33.587 -31.829  0.00  0.00    -0.014 A 
ATOM     11  C   UNL A   1      30.542 -33.879 -31.768  0.00  0.00    -0.056 A 
ATOM     12  C   UNL A   1      29.628 -32.940 -31.285  0.00  0.00    -0.061 A 
ATOM     13  C   UNL A   1      30.071 -31.696 -30.851  0.00  0.00    -0.061 A 
ATOM     14  C   UNL A   1      31.428 -31.389 -30.896  0.00  0.00    -0.047 A 
ATOM     15  C   UNL A   1      32.348 -32.325 -31.380  0.00  0.00    +0.023 A 
ATOM     16 BR   UNL A   1      34.173 -31.798 -31.397  0.00  0.00    -0.050 Br
ENDBRANCH   9  10
ENDBRANCH   7   9
ENDBRANCH   2   3
BRANCH   1  18
ATOM     17  O   UNL A   1      39.860 -34.576 -32.716  0.00  0.00    -0.284 OA
ATOM     18  C   UNL A   1      39.462 -35.538 -32.058  0.00  0.00    +0.221 C 
BRANCH  18  19
ATOM     19  C   UNL A   1      40.360 -36.541 -31.521  0.00  0.00    +0.176 A 
ATOM     20  C   UNL A   1      41.530 -37.055 -32.053  0.00  0.00    -0.005 A 
ATOM     21  C   UNL A   1      42.049 -37.977 -31.109  0.00  0.00    +0.022 A 
ATOM     22  C   UNL A   1      43.175 -38.815 -31.040  0.00  0.00    -0.037 A 
ATOM     23  C   UNL A   1      43.349 -39.597 -29.891  0.00  0.00    +0.019 A 
ATOM     24 BR   UNL A   1      44.857 -40.736 -29.770  0.00  0.00    -0.050 Br
ATOM     25  C   UNL A   1      42.438 -39.555 -28.832  0.00  0.00    -0.044 A 
ATOM     26  C   UNL A   1      41.312 -38.725 -28.887  0.00  0.00    -0.018 A 
ATOM     27  C   UNL A   1      41.161 -37.959 -30.040  0.00  0.00    +0.136 A 
ATOM     28  O   UNL A   1      40.140 -37.092 -30.286  0.00  0.00    -0.452 OA
ENDBRANCH  18  19
ENDBRANCH   1  18
TORSDOF 5
ENDMDL
MODEL 3
REMARK VINA RESULT:    -8.064     16.991     20.346
REMARK INTER + INTRA:         -11.256
REMARK INTER:                 -10.275
REMARK INTRA:                  -0.981
REMARK UNBOUND:                -0.835
REMARK  Name = cpd326.pdb
REMARK  5 active torsions:
REMARK  status: ('A' for Active; 'I' for Inactive)
REMARK    1  A    between atoms: C_2  and  C_3
REMARK    2  A    between atoms: C_2  and  C_19
REMARK    3  A    between atoms: C_4  and  C_5
REMARK    4  A    between atoms: N_9  and  C_10
REMARK    5  A    between atoms: C_10  and  C_11
REMARK                            x       y       z     vdW  Elec       q    Type
REMARK                         _______ _______ _______ _____ _____    ______ ____
ROOT
ATOM      1  C   UNL A   1      42.304 -21.522 -38.325  0.00  0.00    -0.011 C 
ATOM      2  C   UNL A   1      42.955 -20.908 -37.325  0.00  0.00    -0.049 C 
ENDROOT
BRANCH   2   3
ATOM      3  C   UNL A   1      44.335 -20.417 -37.436  0.00  0.00    -0.009 A 
ATOM      4  C   UNL A   1      45.118 -20.128 -36.318  0.00  0.00    -0.052 A 
ATOM      5  C   UNL A   1      46.426 -19.686 -36.483  0.00  0.00    -0.045 A 
ATOM      6  C   UNL A   1      46.944 -19.549 -37.763  0.00  0.00    +0.005 A 
ATOM      7  N   UNL A   1      46.193 -19.855 -38.846  0.00  0.00    -0.348 N 
ATOM      8  C   UNL A   1      44.914 -20.280 -38.701  0.00  0.00    +0.012 A 
BRANCH   7   9
ATOM      9  C   UNL A   1      46.771 -19.700 -40.208  0.00  0.00    +0.049 C 
BRANCH   9  10
ATOM     10  C   UNL A   1      46.907 -21.036 -40.896  0.00  0.00    -0.014 A 
ATOM     11  C   UNL A   1      47.882 -21.939 -40.428  0.00  0.00    -0.056 A 
ATOM     12  C   UNL A   1      48.060 -23.184 -41.036  0.00  0.00    -0.061 A 
ATOM     13  C   UNL A   1      47.267 -23.550 -42.117  0.00  0.00    -0.061 A 
ATOM     14  C   UNL A   1      46.293 -22.676 -42.591  0.00  0.00    -0.047 A 
ATOM     15  C   UNL A   1      46.111 -21.427 -41.988  0.00  0.00    +0.023 A 
ATOM     16 BR   UNL A   1      44.755 -20.315 -42.719  0.00  0.00    -0.050 Br
ENDBRANCH   9  10
ENDBRANCH   7   9
ENDBRANCH   2   3
BRANCH   1  18
ATOM     17  O   UNL A   1      40.542 -22.748 -39.201  0.00  0.00    -0.284 OA
ATOM     18  C   UNL A   1      40.891 -22.015 -38.275  0.00  0.00    +0.221 C 
BRANCH  18  19
ATOM     19  C   UNL A   1      40.002 -21.657 -37.188  0.00  0.00    +0.176 A 
ATOM     20  C   UNL A   1      39.242 -20.515 -37.007  0.00  0.00    -0.005 A 
ATOM     21  C   UNL A   1      38.515 -20.681 -35.801  0.00  0.00    +0.022 A 
ATOM     22  C   UNL A   1      37.592 -19.913 -35.071  0.00  0.00    -0.037 A 
ATOM     23  C   UNL A   1      37.071 -20.452 -33.888  0.00  0.00    +0.019 A 
ATOM     24 BR   UNL A   1      35.825 -19.438 -32.884  0.00  0.00    -0.050 Br
ATOM     25  C   UNL A   1      37.446 -21.718 -33.432  0.00  0.00    -0.044 A 
ATOM     26  C   UNL A   1      38.365 -22.495 -34.149  0.00  0.00    -0.018 A 
ATOM     27  C   UNL A   1      38.870 -21.936 -35.320  0.00  0.00    +0.136 A 
ATOM     28  O   UNL A   1      39.768 -22.528 -36.156  0.00  0.00    -0.452 OA
ENDBRANCH  18  19
ENDBRANCH   1  18
TORSDOF 5
ENDMDL
MODEL 4
REMARK VINA RESULT:    -7.779      5.454      9.095
REMARK INTER + INTRA:         -10.887
REMARK INTER:                 -10.306
REMARK INTRA:                  -0.581
REMARK UNBOUND:                -0.835
REMARK  Name = cpd326.pdb
REMARK  5 active torsions:
REMARK  status: ('A' for Active; 'I' for Inactive)
REMARK    1  A    between atoms: C_2  and  C_3
REMARK    2  A    between atoms: C_2  and  C_19
REMARK    3  A    between atoms: C_4  and  C_5
REMARK    4  A    between atoms: N_9  and  C_10
REMARK    5  A    between atoms: C_10  and  C_11
REMARK                            x       y       z     vdW  Elec       q    Type
REMARK                         _______ _______ _______ _____ _____    ______ ____
ROOT
ATOM      1  C   UNL A   1      34.397 -40.995 -32.914  0.00  0.00    -0.011 C 
ATOM      2  C   UNL A   1      34.464 -40.000 -32.015  0.00  0.00    -0.049 C 
ENDROOT
BRANCH   2   3
ATOM      3  C   UNL A   1      35.392 -39.996 -30.877  0.00  0.00    -0.009 A 
ATOM      4  C   UNL A   1      35.678 -41.146 -30.140  0.00  0.00    -0.052 A 
ATOM      5  C   UNL A   1      36.581 -41.086 -29.084  0.00  0.00    -0.045 A 
ATOM      6  C   UNL A   1      37.200 -39.881 -28.782  0.00  0.00    +0.005 A 
ATOM      7  N   UNL A   1      36.941 -38.772 -29.513  0.00  0.00    -0.348 N 
ATOM      8  C   UNL A   1      36.058 -38.813 -30.541  0.00  0.00    +0.012 A 
BRANCH   7   9
ATOM      9  C   UNL A   1      37.617 -37.492 -29.169  0.00  0.00    +0.049 C 
BRANCH   9  10
ATOM     10  C   UNL A   1      39.007 -37.437 -29.752  0.00  0.00    -0.014 A 
ATOM     11  C   UNL A   1      40.030 -38.178 -29.128  0.00  0.00    -0.056 A 
ATOM     12  C   UNL A   1      41.338 -38.154 -29.617  0.00  0.00    -0.061 A 
ATOM     13  C   UNL A   1      41.647 -37.394 -30.739  0.00  0.00    -0.061 A 
ATOM     14  C   UNL A   1      40.650 -36.659 -31.377  0.00  0.00    -0.047 A 
ATOM     15  C   UNL A   1      39.339 -36.679 -30.890  0.00  0.00    +0.023 A 
ATOM     16 BR   UNL A   1      38.062 -35.639 -31.836  0.00  0.00    -0.050 Br
ENDBRANCH   9  10
ENDBRANCH   7   9
ENDBRANCH   2   3
BRANCH   1  18
ATOM     17  O   UNL A   1      32.944 -39.974 -34.404  0.00  0.00    -0.284 OA
ATOM     18  C   UNL A   1      33.492 -41.036 -34.106  0.00  0.00    +0.221 C 
BRANCH  18  19
ATOM     19  C   UNL A   1      33.293 -42.254 -34.864  0.00  0.00    +0.176 A 
ATOM     20  C   UNL A   1      32.436 -42.508 -35.921  0.00  0.00    -0.005 A 
ATOM     21  C   UNL A   1      32.665 -43.845 -36.334  0.00  0.00    +0.022 A 
ATOM     22  C   UNL A   1      32.139 -44.694 -37.323  0.00  0.00    -0.037 A 
ATOM     23  C   UNL A   1      32.655 -45.992 -37.425  0.00  0.00    +0.019 A 
ATOM     24 BR   UNL A   1      31.965 -47.158 -38.748  0.00  0.00    -0.050 Br
ATOM     25  C   UNL A   1      33.666 -46.447 -36.575  0.00  0.00    -0.044 A 
ATOM     26  C   UNL A   1      34.200 -45.612 -35.585  0.00  0.00    -0.018 A 
ATOM     27  C   UNL A   1      33.669 -44.327 -35.503  0.00  0.00    +0.136 A 
ATOM     28  O   UNL A   1      34.051 -43.368 -34.615  0.00  0.00    -0.452 OA
ENDBRANCH  18  19
ENDBRANCH   1  18
TORSDOF 5
ENDMDL
MODEL 5
REMARK VINA RESULT:    -7.745      4.917      8.639
REMARK INTER + INTRA:         -10.843
REMARK INTER:                 -10.156
REMARK INTRA:                  -0.687
REMARK UNBOUND:                -0.835
REMARK  Name = cpd326.pdb
REMARK  5 active torsions:
REMARK  status: ('A' for Active; 'I' for Inactive)
REMARK    1  A    between atoms: C_2  and  C_3
REMARK    2  A    between atoms: C_2  and  C_19
REMARK    3  A    between atoms: C_4  and  C_5
REMARK    4  A    between atoms: N_9  and  C_10
REMARK    5  A    between atoms: C_10  and  C_11
REMARK                            x       y       z     vdW  Elec       q    Type
REMARK                         _______ _______ _______ _____ _____    ______ ____
ROOT
ATOM      1  C   UNL A   1      34.037 -39.957 -32.473  0.00  0.00    -0.011 C 
ATOM      2  C   UNL A   1      35.029 -40.704 -31.963  0.00  0.00    -0.049 C 
ENDROOT
BRANCH   2   3
ATOM      3  C   UNL A   1      35.785 -40.337 -30.758  0.00  0.00    -0.009 A 
ATOM      4  C   UNL A   1      36.125 -41.267 -29.775  0.00  0.00    -0.052 A 
ATOM      5  C   UNL A   1      36.860 -40.867 -28.665  0.00  0.00    -0.045 A 
ATOM      6  C   UNL A   1      37.260 -39.542 -28.553  0.00  0.00    +0.005 A 
ATOM      7  N   UNL A   1      36.953 -38.646 -29.519  0.00  0.00    -0.348 N 
ATOM      8  C   UNL A   1      36.230 -39.021 -30.603  0.00  0.00    +0.012 A 
BRANCH   7   9
ATOM      9  C   UNL A   1      37.393 -37.232 -29.376  0.00  0.00    +0.049 C 
BRANCH   9  10
ATOM     10  C   UNL A   1      38.512 -36.911 -30.335  0.00  0.00    -0.014 A 
ATOM     11  C   UNL A   1      38.206 -36.212 -31.520  0.00  0.00    -0.056 A 
ATOM     12  C   UNL A   1      39.200 -35.900 -32.449  0.00  0.00    -0.061 A 
ATOM     13  C   UNL A   1      40.517 -36.275 -32.211  0.00  0.00    -0.061 A 
ATOM     14  C   UNL A   1      40.844 -36.960 -31.044  0.00  0.00    -0.047 A 
ATOM     15  C   UNL A   1      39.851 -37.277 -30.110  0.00  0.00    +0.023 A 
ATOM     16 BR   UNL A   1      40.411 -38.215 -28.556  0.00  0.00    -0.050 Br
ENDBRANCH   9  10
ENDBRANCH   7   9
ENDBRANCH   2   3
BRANCH   1  18
ATOM     17  O   UNL A   1      32.648 -39.354 -34.227  0.00  0.00    -0.284 OA
ATOM     18  C   UNL A   1      33.218 -40.298 -33.678  0.00  0.00    +0.221 C 
BRANCH  18  19
ATOM     19  C   UNL A   1      33.123 -41.658 -34.169  0.00  0.00    +0.176 A 
ATOM     20  C   UNL A   1      33.842 -42.290 -35.168  0.00  0.00    -0.005 A 
ATOM     21  C   UNL A   1      33.392 -43.633 -35.224  0.00  0.00    +0.022 A 
ATOM     22  C   UNL A   1      33.705 -44.766 -35.995  0.00  0.00    -0.037 A 
ATOM     23  C   UNL A   1      33.020 -45.958 -35.729  0.00  0.00    +0.019 A 
ATOM     24 BR   UNL A   1      33.421 -47.500 -36.753  0.00  0.00    -0.050 Br
ATOM     25  C   UNL A   1      32.051 -46.038 -34.725  0.00  0.00    -0.044 A 
ATOM     26  C   UNL A   1      31.730 -44.918 -33.948  0.00  0.00    -0.018 A 
ATOM     27  C   UNL A   1      32.422 -43.744 -34.234  0.00  0.00    +0.136 A 
ATOM     28  O   UNL A   1      32.258 -42.553 -33.595  0.00  0.00    -0.452 OA
ENDBRANCH  18  19
ENDBRANCH   1  18
TORSDOF 5
ENDMDL
MODEL 6
REMARK VINA RESULT:    -7.691      3.483      8.376
REMARK INTER + INTRA:         -10.773
REMARK INTER:                  -9.875
REMARK INTRA:                  -0.898
REMARK UNBOUND:                -0.835
REMARK  Name = cpd326.pdb
REMARK  5 active torsions:
REMARK  status: ('A' for Active; 'I' for Inactive)
REMARK    1  A    between atoms: C_2  and  C_3
REMARK    2  A    between atoms: C_2  and  C_19
REMARK    3  A    between atoms: C_4  and  C_5
REMARK    4  A    between atoms: N_9  and  C_10
REMARK    5  A    between atoms: C_10  and  C_11
REMARK                            x       y       z     vdW  Elec       q    Type
REMARK                         _______ _______ _______ _____ _____    ______ ____
ROOT
ATOM      1  C   UNL A   1      35.411 -33.707 -30.623  0.00  0.00    -0.011 C 
ATOM      2  C   UNL A   1      36.416 -34.250 -31.329  0.00  0.00    -0.049 C 
ENDROOT
BRANCH   2   3
ATOM      3  C   UNL A   1      37.268 -35.336 -30.826  0.00  0.00    -0.009 A 
ATOM      4  C   UNL A   1      38.492 -35.658 -31.411  0.00  0.00    -0.052 A 
ATOM      5  C   UNL A   1      39.267 -36.683 -30.878  0.00  0.00    -0.045 A 
ATOM      6  C   UNL A   1      38.816 -37.368 -29.759  0.00  0.00    +0.005 A 
ATOM      7  N   UNL A   1      37.641 -37.037 -29.176  0.00  0.00    -0.348 N 
ATOM      8  C   UNL A   1      36.872 -36.045 -29.688  0.00  0.00    +0.012 A 
BRANCH   7   9
ATOM      9  C   UNL A   1      37.179 -37.786 -27.976  0.00  0.00    +0.049 C 
BRANCH   9  10
ATOM     10  C   UNL A   1      36.166 -38.840 -28.349  0.00  0.00    -0.014 A 
ATOM     11  C   UNL A   1      36.623 -40.040 -28.929  0.00  0.00    -0.056 A 
ATOM     12  C   UNL A   1      35.728 -41.044 -29.305  0.00  0.00    -0.061 A 
ATOM     13  C   UNL A   1      34.363 -40.870 -29.106  0.00  0.00    -0.061 A 
ATOM     14  C   UNL A   1      33.890 -39.695 -28.528  0.00  0.00    -0.047 A 
ATOM     15  C   UNL A   1      34.782 -38.685 -28.151  0.00  0.00    +0.023 A 
ATOM     16 BR   UNL A   1      34.026 -37.125 -27.374  0.00  0.00    -0.050 Br
ENDBRANCH   9  10
ENDBRANCH   7   9
ENDBRANCH   2   3
BRANCH   1  18
ATOM     17  O   UNL A   1      34.943 -31.890 -31.984  0.00  0.00    -0.284 OA
ATOM     18  C   UNL A   1      34.497 -32.621 -31.099  0.00  0.00    +0.221 C 
BRANCH  18  19
ATOM     19  C   UNL A   1      33.164 -32.460 -30.553  0.00  0.00    +0.176 A 
ATOM     20  C   UNL A   1      32.411 -33.333 -29.787  0.00  0.00    -0.005 A 
ATOM     21  C   UNL A   1      31.195 -32.676 -29.477  0.00  0.00    +0.022 A 
ATOM     22  C   UNL A   1      30.033 -33.001 -28.754  0.00  0.00    -0.037 A 
ATOM     23  C   UNL A   1      29.018 -32.040 -28.664  0.00  0.00    +0.019 A 
ATOM     24 BR   UNL A   1      27.443 -32.452 -27.698  0.00  0.00    -0.050 Br
ATOM     25  C   UNL A   1      29.141 -30.786 -29.268  0.00  0.00    -0.044 A 
ATOM     26  C   UNL A   1      30.292 -30.448 -29.991  0.00  0.00    -0.018 A 
ATOM     27  C   UNL A   1      31.285 -31.421 -30.067  0.00  0.00    +0.136 A 
ATOM     28  O   UNL A   1      32.474 -31.288 -30.718  0.00  0.00    -0.452 OA
ENDBRANCH  18  19
ENDBRANCH   1  18
TORSDOF 5
ENDMDL
MODEL 7
REMARK VINA RESULT:    -7.442      3.664      4.887
REMARK INTER + INTRA:         -10.452
REMARK INTER:                  -9.592
REMARK INTRA:                  -0.860
REMARK UNBOUND:                -0.835
REMARK  Name = cpd326.pdb
REMARK  5 active torsions:
REMARK  status: ('A' for Active; 'I' for Inactive)
REMARK    1  A    between atoms: C_2  and  C_3
REMARK    2  A    between atoms: C_2  and  C_19
REMARK    3  A    between atoms: C_4  and  C_5
REMARK    4  A    between atoms: N_9  and  C_10
REMARK    5  A    between atoms: C_10  and  C_11
REMARK                            x       y       z     vdW  Elec       q    Type
REMARK                         _______ _______ _______ _____ _____    ______ ____
ROOT
ATOM      1  C   UNL A   1      34.150 -36.411 -31.227  0.00  0.00    -0.011 C 
ATOM      2  C   UNL A   1      34.037 -37.487 -32.021  0.00  0.00    -0.049 C 
ENDROOT
BRANCH   2   3
ATOM      3  C   UNL A   1      32.981 -37.645 -33.030  0.00  0.00    -0.009 A 
ATOM      4  C   UNL A   1      32.462 -36.565 -33.746  0.00  0.00    -0.052 A 
ATOM      5  C   UNL A   1      31.477 -36.777 -34.704  0.00  0.00    -0.045 A 
ATOM      6  C   UNL A   1      31.028 -38.068 -34.948  0.00  0.00    +0.005 A 
ATOM      7  N   UNL A   1      31.550 -39.118 -34.272  0.00  0.00    -0.348 N 
ATOM      8  C   UNL A   1      32.506 -38.925 -33.330  0.00  0.00    +0.012 A 
BRANCH   7   9
ATOM      9  C   UNL A   1      31.052 -40.491 -34.552  0.00  0.00    +0.049 C 
BRANCH   9  10
ATOM     10  C   UNL A   1      32.101 -41.317 -35.255  0.00  0.00    -0.014 A 
ATOM     11  C   UNL A   1      32.426 -41.000 -36.589  0.00  0.00    -0.056 A 
ATOM     12  C   UNL A   1      33.379 -41.739 -37.292  0.00  0.00    -0.061 A 
ATOM     13  C   UNL A   1      34.027 -42.804 -36.676  0.00  0.00    -0.061 A 
ATOM     14  C   UNL A   1      33.727 -43.130 -35.357  0.00  0.00    -0.047 A 
ATOM     15  C   UNL A   1      32.771 -42.394 -34.648  0.00  0.00    +0.023 A 
ATOM     16 BR   UNL A   1      32.440 -42.929 -32.855  0.00  0.00    -0.050 Br
ENDBRANCH   9  10
ENDBRANCH   7   9
ENDBRANCH   2   3
BRANCH   1  18
ATOM     17  O   UNL A   1      34.833 -35.967 -29.058  0.00  0.00    -0.284 OA
ATOM     18  C   UNL A   1      35.221 -36.188 -30.205  0.00  0.00    +0.221 C 
BRANCH  18  19
ATOM     19  C   UNL A   1      36.626 -36.248 -30.556  0.00  0.00    +0.176 A 
ATOM     20  C   UNL A   1      37.664 -36.919 -29.934  0.00  0.00    -0.005 A 
ATOM     21  C   UNL A   1      38.833 -36.687 -30.702  0.00  0.00    +0.022 A 
ATOM     22  C   UNL A   1      40.182 -37.072 -30.618  0.00  0.00    -0.037 A 
ATOM     23  C   UNL A   1      41.061 -36.630 -31.616  0.00  0.00    +0.019 A 
ATOM     24 BR   UNL A   1      42.884 -37.132 -31.527  0.00  0.00    -0.050 Br
ATOM     25  C   UNL A   1      40.623 -35.830 -32.675  0.00  0.00    -0.044 A 
ATOM     26  C   UNL A   1      39.282 -35.440 -32.772  0.00  0.00    -0.018 A 
ATOM     27  C   UNL A   1      38.429 -35.890 -31.767  0.00  0.00    +0.136 A 
ATOM     28  O   UNL A   1      37.096 -35.624 -31.681  0.00  0.00    -0.452 OA
ENDBRANCH  18  19
ENDBRANCH   1  18
TORSDOF 5
ENDMDL
MODEL 8
REMARK VINA RESULT:    -7.386     16.532     18.928
REMARK INTER + INTRA:         -10.380
REMARK INTER:                  -9.597
REMARK INTRA:                  -0.783
REMARK UNBOUND:                -0.835
REMARK  Name = cpd326.pdb
REMARK  5 active torsions:
REMARK  status: ('A' for Active; 'I' for Inactive)
REMARK    1  A    between atoms: C_2  and  C_3
REMARK    2  A    between atoms: C_2  and  C_19
REMARK    3  A    between atoms: C_4  and  C_5
REMARK    4  A    between atoms: N_9  and  C_10
REMARK    5  A    between atoms: C_10  and  C_11
REMARK                            x       y       z     vdW  Elec       q    Type
REMARK                         _______ _______ _______ _____ _____    ______ ____
ROOT
ATOM      1  C   UNL A   1      41.416 -20.741 -37.548  0.00  0.00    -0.011 C 
ATOM      2  C   UNL A   1      40.107 -20.761 -37.253  0.00  0.00    -0.049 C 
ENDROOT
BRANCH   2   3
ATOM      3  C   UNL A   1      39.549 -21.449 -36.081  0.00  0.00    -0.009 A 
ATOM      4  C   UNL A   1      39.162 -22.790 -36.114  0.00  0.00    -0.052 A 
ATOM      5  C   UNL A   1      38.660 -23.394 -34.967  0.00  0.00    -0.045 A 
ATOM      6  C   UNL A   1      38.559 -22.658 -33.795  0.00  0.00    +0.005 A 
ATOM      7  N   UNL A   1      38.959 -21.365 -33.757  0.00  0.00    -0.348 N 
ATOM      8  C   UNL A   1      39.444 -20.761 -34.869  0.00  0.00    +0.012 A 
BRANCH   7   9
ATOM      9  C   UNL A   1      38.841 -20.597 -32.489  0.00  0.00    +0.049 C 
BRANCH   9  10
ATOM     10  C   UNL A   1      37.897 -19.431 -32.644  0.00  0.00    -0.014 A 
ATOM     11  C   UNL A   1      36.511 -19.686 -32.677  0.00  0.00    -0.056 A 
ATOM     12  C   UNL A   1      35.592 -18.646 -32.832  0.00  0.00    -0.061 A 
ATOM     13  C   UNL A   1      36.038 -17.335 -32.953  0.00  0.00    -0.061 A 
ATOM     14  C   UNL A   1      37.403 -17.060 -32.916  0.00  0.00    -0.047 A 
ATOM     15  C   UNL A   1      38.328 -18.098 -32.762  0.00  0.00    +0.023 A 
ATOM     16 BR   UNL A   1      40.163 -17.607 -32.728  0.00  0.00    -0.050 Br
ENDBRANCH   9  10
ENDBRANCH   7   9
ENDBRANCH   2   3
BRANCH   1  18
ATOM     17  O   UNL A   1      41.576 -18.923 -38.977  0.00  0.00    -0.284 OA
ATOM     18  C   UNL A   1      42.039 -20.033 -38.711  0.00  0.00    +0.221 C 
BRANCH  18  19
ATOM     19  C   UNL A   1      43.130 -20.622 -39.461  0.00  0.00    +0.176 A 
ATOM     20  C   UNL A   1      44.342 -21.119 -39.015  0.00  0.00    -0.005 A 
ATOM     21  C   UNL A   1      45.030 -21.623 -40.146  0.00  0.00    +0.022 A 
ATOM     22  C   UNL A   1      46.273 -22.241 -40.373  0.00  0.00    -0.037 A 
ATOM     23  C   UNL A   1      46.597 -22.617 -41.682  0.00  0.00    +0.019 A 
ATOM     24 BR   UNL A   1      48.264 -23.451 -42.017  0.00  0.00    -0.050 Br
ATOM     25  C   UNL A   1      45.719 -22.394 -42.747  0.00  0.00    -0.044 A 
ATOM     26  C   UNL A   1      44.478 -21.781 -42.536  0.00  0.00    -0.018 A 
ATOM     27  C   UNL A   1      44.181 -21.414 -41.226  0.00  0.00    +0.136 A 
ATOM     28  O   UNL A   1      43.031 -20.810 -40.814  0.00  0.00    -0.452 OA
ENDBRANCH  18  19
ENDBRANCH   1  18
TORSDOF 5
ENDMDL
MODEL 9
REMARK VINA RESULT:    -7.314     33.886     36.435
REMARK INTER + INTRA:         -10.287
REMARK INTER:                  -9.460
REMARK INTRA:                  -0.827
REMARK UNBOUND:                -0.835
REMARK  Name = cpd326.pdb
REMARK  5 active torsions:
REMARK  status: ('A' for Active; 'I' for Inactive)
REMARK    1  A    between atoms: C_2  and  C_3
REMARK    2  A    between atoms: C_2  and  C_19
REMARK    3  A    between atoms: C_4  and  C_5
REMARK    4  A    between atoms: N_9  and  C_10
REMARK    5  A    between atoms: C_10  and  C_11
REMARK                            x       y       z     vdW  Elec       q    Type
REMARK                         _______ _______ _______ _____ _____    ______ ____
ROOT
ATOM      1  C   UNL A   1      62.386 -21.452 -10.034  0.00  0.00    -0.011 C 
ATOM      2  C   UNL A   1      62.786 -20.227 -10.411  0.00  0.00    -0.049 C 
ENDROOT
BRANCH   2   3
ATOM      3  C   UNL A   1      61.860 -19.151 -10.786  0.00  0.00    -0.009 A 
ATOM      4  C   UNL A   1      62.274 -18.017 -11.486  0.00  0.00    -0.052 A 
ATOM      5  C   UNL A   1      61.349 -17.039 -11.833  0.00  0.00    -0.045 A 
ATOM      6  C   UNL A   1      60.015 -17.209 -11.489  0.00  0.00    +0.005 A 
ATOM      7  N   UNL A   1      59.609 -18.321 -10.834  0.00  0.00    -0.348 N 
ATOM      8  C   UNL A   1      60.501 -19.279 -10.482  0.00  0.00    +0.012 A 
BRANCH   7   9
ATOM      9  C   UNL A   1      58.174 -18.479 -10.476  0.00  0.00    +0.049 C 
BRANCH   9  10
ATOM     10  C   UNL A   1      57.357 -18.893 -11.674  0.00  0.00    -0.014 A 
ATOM     11  C   UNL A   1      57.470 -20.217 -12.144  0.00  0.00    -0.056 A 
ATOM     12  C   UNL A   1      56.748 -20.650 -13.257  0.00  0.00    -0.061 A 
ATOM     13  C   UNL A   1      55.895 -19.773 -13.918  0.00  0.00    -0.061 A 
ATOM     14  C   UNL A   1      55.762 -18.462 -13.467  0.00  0.00    -0.047 A 
ATOM     15  C   UNL A   1      56.485 -18.023 -12.353  0.00  0.00    +0.023 A 
ATOM     16 BR   UNL A   1      56.226 -16.215 -11.828  0.00  0.00    -0.050 Br
ENDBRANCH   9  10
ENDBRANCH   7   9
ENDBRANCH   2   3
BRANCH   1  18
ATOM     17  O   UNL A   1      63.611 -23.364 -10.502  0.00  0.00    -0.284 OA
ATOM     18  C   UNL A   1      63.285 -22.574  -9.615  0.00  0.00    +0.221 C 
BRANCH  18  19
ATOM     19  C   UNL A   1      63.750 -22.701  -8.248  0.00  0.00    +0.176 A 
ATOM     20  C   UNL A   1      64.107 -21.720  -7.340  0.00  0.00    -0.005 A 
ATOM     21  C   UNL A   1      64.446 -22.372  -6.129  0.00  0.00    +0.022 A 
ATOM     22  C   UNL A   1      64.879 -21.964  -4.855  0.00  0.00    -0.037 A 
ATOM     23  C   UNL A   1      65.105 -22.948  -3.885  0.00  0.00    +0.019 A 
ATOM     24 BR   UNL A   1      65.690 -22.426  -2.161  0.00  0.00    -0.050 Br
ATOM     25  C   UNL A   1      64.906 -24.304  -4.157  0.00  0.00    -0.044 A 
ATOM     26  C   UNL A   1      64.473 -24.726  -5.420  0.00  0.00    -0.018 A 
ATOM     27  C   UNL A   1      64.259 -23.728  -6.369  0.00  0.00    +0.136 A 
ATOM     28  O   UNL A   1      63.838 -23.930  -7.648  0.00  0.00    -0.452 OA
ENDBRANCH  18  19
ENDBRANCH   1  18
TORSDOF 5
ENDMDL
MODEL 10
REMARK VINA RESULT:    -7.243      5.751      8.757
REMARK INTER + INTRA:         -10.194
REMARK INTER:                  -9.488
REMARK INTRA:                  -0.707
REMARK UNBOUND:                -0.835
REMARK  Name = cpd326.pdb
REMARK  5 active torsions:
REMARK  status: ('A' for Active; 'I' for Inactive)
REMARK    1  A    between atoms: C_2  and  C_3
REMARK    2  A    between atoms: C_2  and  C_19
REMARK    3  A    between atoms: C_4  and  C_5
REMARK    4  A    between atoms: N_9  and  C_10
REMARK    5  A    between atoms: C_10  and  C_11
REMARK                            x       y       z     vdW  Elec       q    Type
REMARK                         _______ _______ _______ _____ _____    ______ ____
ROOT
ATOM      1  C   UNL A   1      33.557 -38.592 -26.147  0.00  0.00    -0.011 C 
ATOM      2  C   UNL A   1      33.848 -39.599 -26.984  0.00  0.00    -0.049 C 
ENDROOT
BRANCH   2   3
ATOM      3  C   UNL A   1      34.625 -39.430 -28.220  0.00  0.00    -0.009 A 
ATOM      4  C   UNL A   1      34.621 -40.380 -29.242  0.00  0.00    -0.052 A 
ATOM      5  C   UNL A   1      35.359 -40.156 -30.399  0.00  0.00    -0.045 A 
ATOM      6  C   UNL A   1      36.085 -38.980 -30.529  0.00  0.00    +0.005 A 
ATOM      7  N   UNL A   1      36.066 -38.048 -29.549  0.00  0.00    -0.348 N 
ATOM      8  C   UNL A   1      35.357 -38.255 -28.413  0.00  0.00    +0.012 A 
BRANCH   7   9
ATOM      9  C   UNL A   1      36.852 -36.795 -29.712  0.00  0.00    +0.049 C 
BRANCH   9  10
ATOM     10  C   UNL A   1      38.329 -37.088 -29.811  0.00  0.00    -0.014 A 
ATOM     11  C   UNL A   1      38.922 -37.902 -28.826  0.00  0.00    -0.056 A 
ATOM     12  C   UNL A   1      40.287 -38.195 -28.861  0.00  0.00    -0.061 A 
ATOM     13  C   UNL A   1      41.082 -37.686 -29.881  0.00  0.00    -0.061 A 
ATOM     14  C   UNL A   1      40.515 -36.886 -30.870  0.00  0.00    -0.047 A 
ATOM     15  C   UNL A   1      39.149 -36.588 -30.838  0.00  0.00    +0.023 A 
ATOM     16 BR   UNL A   1      38.484 -35.486 -32.236  0.00  0.00    -0.050 Br
ENDBRANCH   9  10
ENDBRANCH   7   9
ENDBRANCH   2   3
BRANCH   1  18
ATOM     17  O   UNL A   1      31.659 -38.241 -24.864  0.00  0.00    -0.284 OA
ATOM     18  C   UNL A   1      32.796 -38.714 -24.863  0.00  0.00    +0.221 C 
BRANCH  18  19
ATOM     19  C   UNL A   1      33.368 -39.368 -23.703  0.00  0.00    +0.176 A 
ATOM     20  C   UNL A   1      33.769 -40.682 -23.537  0.00  0.00    -0.005 A 
ATOM     21  C   UNL A   1      34.302 -40.795 -22.228  0.00  0.00    +0.022 A 
ATOM     22  C   UNL A   1      34.862 -41.828 -21.458  0.00  0.00    -0.037 A 
ATOM     23  C   UNL A   1      35.298 -41.527 -20.161  0.00  0.00    +0.019 A 
ATOM     24 BR   UNL A   1      36.056 -42.901 -19.101  0.00  0.00    -0.050 Br
ATOM     25  C   UNL A   1      35.188 -40.238 -19.633  0.00  0.00    -0.044 A 
ATOM     26  C   UNL A   1      34.633 -39.198 -20.388  0.00  0.00    -0.018 A 
ATOM     27  C   UNL A   1      34.205 -39.524 -21.673  0.00  0.00    +0.136 A 
ATOM     28  O   UNL A   1      33.642 -38.660 -22.563  0.00  0.00    -0.452 OA
ENDBRANCH  18  19
ENDBRANCH   1  18
TORSDOF 5
ENDMDL
MODEL 11
REMARK VINA RESULT:    -7.217     33.254     35.735
REMARK INTER + INTRA:         -10.161
REMARK INTER:                  -9.415
REMARK INTRA:                  -0.746
REMARK UNBOUND:                -0.835
REMARK  Name = cpd326.pdb
REMARK  5 active torsions:
REMARK  status: ('A' for Active; 'I' for Inactive)
REMARK    1  A    between atoms: C_2  and  C_3
REMARK    2  A    between atoms: C_2  and  C_19
REMARK    3  A    between atoms: C_4  and  C_5
REMARK    4  A    between atoms: N_9  and  C_10
REMARK    5  A    between atoms: C_10  and  C_11
REMARK                            x       y       z     vdW  Elec       q    Type
REMARK                         _______ _______ _______ _____ _____    ______ ____
ROOT
ATOM      1  C   UNL A   1      62.521 -19.255  -8.380  0.00  0.00    -0.011 C 
ATOM      2  C   UNL A   1      62.163 -19.019  -9.652  0.00  0.00    -0.049 C 
ENDROOT
BRANCH   2   3
ATOM      3  C   UNL A   1      61.060 -18.127 -10.034  0.00  0.00    -0.009 A 
ATOM      4  C   UNL A   1      61.274 -16.830 -10.501  0.00  0.00    -0.052 A 
ATOM      5  C   UNL A   1      60.193 -16.037 -10.867  0.00  0.00    -0.045 A 
ATOM      6  C   UNL A   1      58.907 -16.552 -10.776  0.00  0.00    +0.005 A 
ATOM      7  N   UNL A   1      58.701 -17.819 -10.348  0.00  0.00    -0.348 N 
ATOM      8  C   UNL A   1      59.746 -18.601  -9.980  0.00  0.00    +0.012 A 
BRANCH   7   9
ATOM      9  C   UNL A   1      57.314 -18.348 -10.258  0.00  0.00    +0.049 C 
BRANCH   9  10
ATOM     10  C   UNL A   1      56.850 -18.886 -11.589  0.00  0.00    -0.014 A 
ATOM     11  C   UNL A   1      57.390 -20.103 -12.050  0.00  0.00    -0.056 A 
ATOM     12  C   UNL A   1      57.006 -20.640 -13.280  0.00  0.00    -0.061 A 
ATOM     13  C   UNL A   1      56.074 -19.976 -14.069  0.00  0.00    -0.061 A 
ATOM     14  C   UNL A   1      55.522 -18.776 -13.630  0.00  0.00    -0.047 A 
ATOM     15  C   UNL A   1      55.904 -18.232 -12.399  0.00  0.00    +0.023 A 
ATOM     16 BR   UNL A   1      55.088 -16.590 -11.902  0.00  0.00    -0.050 Br
ENDBRANCH   9  10
ENDBRANCH   7   9
ENDBRANCH   2   3
BRANCH   1  18
ATOM     17  O   UNL A   1      64.728 -19.564  -7.744  0.00  0.00    -0.284 OA
ATOM     18  C   UNL A   1      63.652 -20.131  -7.939  0.00  0.00    +0.221 C 
BRANCH  18  19
ATOM     19  C   UNL A   1      63.474 -21.555  -7.741  0.00  0.00    +0.176 A 
ATOM     20  C   UNL A   1      63.958 -22.376  -6.737  0.00  0.00    -0.005 A 
ATOM     21  C   UNL A   1      63.458 -23.679  -6.983  0.00  0.00    +0.022 A 
ATOM     22  C   UNL A   1      63.572 -24.933  -6.358  0.00  0.00    -0.037 A 
ATOM     23  C   UNL A   1      62.891 -26.019  -6.922  0.00  0.00    +0.019 A 
ATOM     24 BR   UNL A   1      63.027 -27.720  -6.101  0.00  0.00    -0.050 Br
ATOM     25  C   UNL A   1      62.112 -25.876  -8.074  0.00  0.00    -0.044 A 
ATOM     26  C   UNL A   1      61.989 -24.634  -8.707  0.00  0.00    -0.018 A 
ATOM     27  C   UNL A   1      62.677 -23.570  -8.128  0.00  0.00    +0.136 A 
ATOM     28  O   UNL A   1      62.685 -22.288  -8.587  0.00  0.00    -0.452 OA
ENDBRANCH  18  19
ENDBRANCH   1  18
TORSDOF 5
ENDMDL
MODEL 12
REMARK VINA RESULT:    -7.121      4.512      7.086
REMARK INTER + INTRA:         -10.037
REMARK INTER:                  -9.565
REMARK INTRA:                  -0.472
REMARK UNBOUND:                -0.835
REMARK  Name = cpd326.pdb
REMARK  5 active torsions:
REMARK  status: ('A' for Active; 'I' for Inactive)
REMARK    1  A    between atoms: C_2  and  C_3
REMARK    2  A    between atoms: C_2  and  C_19
REMARK    3  A    between atoms: C_4  and  C_5
REMARK    4  A    between atoms: N_9  and  C_10
REMARK    5  A    between atoms: C_10  and  C_11
REMARK                            x       y       z     vdW  Elec       q    Type
REMARK                         _______ _______ _______ _____ _____    ______ ____
ROOT
ATOM      1  C   UNL A   1      33.945 -34.996 -29.129  0.00  0.00    -0.011 C 
ATOM      2  C   UNL A   1      33.290 -34.534 -30.206  0.00  0.00    -0.049 C 
ENDROOT
BRANCH   2   3
ATOM      3  C   UNL A   1      32.588 -33.244 -30.238  0.00  0.00    -0.009 A 
ATOM      4  C   UNL A   1      33.264 -32.024 -30.188  0.00  0.00    -0.052 A 
ATOM      5  C   UNL A   1      32.548 -30.833 -30.243  0.00  0.00    -0.045 A 
ATOM      6  C   UNL A   1      31.166 -30.871 -30.361  0.00  0.00    +0.005 A 
ATOM      7  N   UNL A   1      30.514 -32.055 -30.437  0.00  0.00    -0.348 N 
ATOM      8  C   UNL A   1      31.197 -33.224 -30.377  0.00  0.00    +0.012 A 
BRANCH   7   9
ATOM      9  C   UNL A   1      29.032 -32.069 -30.563  0.00  0.00    +0.049 C 
BRANCH   9  10
ATOM     10  C   UNL A   1      28.524 -30.781 -31.162  0.00  0.00    -0.014 A 
ATOM     11  C   UNL A   1      28.545 -30.636 -32.563  0.00  0.00    -0.056 A 
ATOM     12  C   UNL A   1      28.099 -29.460 -33.171  0.00  0.00    -0.061 A 
ATOM     13  C   UNL A   1      27.621 -28.412 -32.393  0.00  0.00    -0.061 A 
ATOM     14  C   UNL A   1      27.585 -28.538 -31.007  0.00  0.00    -0.047 A 
ATOM     15  C   UNL A   1      28.032 -29.712 -30.392  0.00  0.00    +0.023 A 
ATOM     16 BR   UNL A   1      27.938 -29.772 -28.496  0.00  0.00    -0.050 Br
ENDBRANCH   9  10
ENDBRANCH   7   9
ENDBRANCH   2   3
BRANCH   1  18
ATOM     17  O   UNL A   1      34.079 -37.246 -28.588  0.00  0.00    -0.284 OA
ATOM     18  C   UNL A   1      34.698 -36.288 -29.053  0.00  0.00    +0.221 C 
BRANCH  18  19
ATOM     19  C   UNL A   1      36.066 -36.395 -29.516  0.00  0.00    +0.176 A 
ATOM     20  C   UNL A   1      37.120 -37.129 -28.999  0.00  0.00    -0.005 A 
ATOM     21  C   UNL A   1      38.233 -36.921 -29.851  0.00  0.00    +0.022 A 
ATOM     22  C   UNL A   1      39.567 -37.364 -29.887  0.00  0.00    -0.037 A 
ATOM     23  C   UNL A   1      40.383 -36.928 -30.938  0.00  0.00    +0.019 A 
ATOM     24 BR   UNL A   1      42.184 -37.508 -31.011  0.00  0.00    -0.050 Br
ATOM     25  C   UNL A   1      39.898 -36.077 -31.936  0.00  0.00    -0.044 A 
ATOM     26  C   UNL A   1      38.572 -35.628 -31.914  0.00  0.00    -0.018 A 
ATOM     27  C   UNL A   1      37.783 -36.074 -30.857  0.00  0.00    +0.136 A 
ATOM     28  O   UNL A   1      36.474 -35.755 -30.657  0.00  0.00    -0.452 OA
ENDBRANCH  18  19
ENDBRANCH   1  18
TORSDOF 5
ENDMDL
MODEL 13
REMARK VINA RESULT:    -7.068     24.391     27.557
REMARK INTER + INTRA:          -9.969
REMARK INTER:                  -9.164
REMARK INTRA:                  -0.805
REMARK UNBOUND:                -0.835
REMARK  Name = cpd326.pdb
REMARK  5 active torsions:
REMARK  status: ('A' for Active; 'I' for Inactive)
REMARK    1  A    between atoms: C_2  and  C_3
REMARK    2  A    between atoms: C_2  and  C_19
REMARK    3  A    between atoms: C_4  and  C_5
REMARK    4  A    between atoms: N_9  and  C_10
REMARK    5  A    between atoms: C_10  and  C_11
REMARK                            x       y       z     vdW  Elec       q    Type
REMARK                         _______ _______ _______ _____ _____    ______ ____
ROOT
ATOM      1  C   UNL A   1      51.076 -31.929 -53.729  0.00  0.00    -0.011 C 
ATOM      2  C   UNL A   1      52.015 -31.253 -53.050  0.00  0.00    -0.049 C 
ENDROOT
BRANCH   2   3
ATOM      3  C   UNL A   1      53.453 -31.539 -53.148  0.00  0.00    -0.009 A 
ATOM      4  C   UNL A   1      54.378 -30.587 -53.577  0.00  0.00    -0.052 A 
ATOM      5  C   UNL A   1      55.730 -30.909 -53.630  0.00  0.00    -0.045 A 
ATOM      6  C   UNL A   1      56.146 -32.175 -53.242  0.00  0.00    +0.005 A 
ATOM      7  N   UNL A   1      55.251 -33.089 -52.800  0.00  0.00    -0.348 N 
ATOM      8  C   UNL A   1      53.930 -32.792 -52.750  0.00  0.00    +0.012 A 
BRANCH   7   9
ATOM      9  C   UNL A   1      55.723 -34.439 -52.390  0.00  0.00    +0.049 C 
BRANCH   9  10
ATOM     10  C   UNL A   1      55.658 -34.605 -50.892  0.00  0.00    -0.014 A 
ATOM     11  C   UNL A   1      56.469 -33.783 -50.086  0.00  0.00    -0.056 A 
ATOM     12  C   UNL A   1      56.459 -33.903 -48.695  0.00  0.00    -0.061 A 
ATOM     13  C   UNL A   1      55.636 -34.842 -48.084  0.00  0.00    -0.061 A 
ATOM     14  C   UNL A   1      54.820 -35.660 -48.860  0.00  0.00    -0.047 A 
ATOM     15  C   UNL A   1      54.828 -35.545 -50.254  0.00  0.00    +0.023 A 
ATOM     16 BR   UNL A   1      53.676 -36.713 -51.213  0.00  0.00    -0.050 Br
ENDBRANCH   9  10
ENDBRANCH   7   9
ENDBRANCH   2   3
BRANCH   1  18
ATOM     17  O   UNL A   1      49.272 -30.474 -53.708  0.00  0.00    -0.284 OA
ATOM     18  C   UNL A   1      49.603 -31.660 -53.688  0.00  0.00    +0.221 C 
BRANCH  18  19
ATOM     19  C   UNL A   1      48.637 -32.739 -53.643  0.00  0.00    +0.176 A 
ATOM     20  C   UNL A   1      48.725 -34.025 -54.144  0.00  0.00    -0.005 A 
ATOM     21  C   UNL A   1      47.525 -34.695 -53.794  0.00  0.00    +0.022 A 
ATOM     22  C   UNL A   1      46.998 -35.982 -53.995  0.00  0.00    -0.037 A 
ATOM     23  C   UNL A   1      45.735 -36.272 -53.463  0.00  0.00    +0.019 A 
ATOM     24 BR   UNL A   1      45.000 -37.997 -53.720  0.00  0.00    -0.050 Br
ATOM     25  C   UNL A   1      45.006 -35.318 -52.746  0.00  0.00    -0.044 A 
ATOM     26  C   UNL A   1      45.519 -34.032 -52.537  0.00  0.00    -0.018 A 
ATOM     27  C   UNL A   1      46.775 -33.769 -53.078  0.00  0.00    +0.136 A 
ATOM     28  O   UNL A   1      47.445 -32.587 -52.985  0.00  0.00    -0.452 OA
ENDBRANCH  18  19
ENDBRANCH   1  18
TORSDOF 5
ENDMDL
MODEL 14
REMARK VINA RESULT:    -7.064     18.236     21.288
REMARK INTER + INTRA:          -9.963
REMARK INTER:                  -9.078
REMARK INTRA:                  -0.885
REMARK UNBOUND:                -0.835
REMARK  Name = cpd326.pdb
REMARK  5 active torsions:
REMARK  status: ('A' for Active; 'I' for Inactive)
REMARK    1  A    between atoms: C_2  and  C_3
REMARK    2  A    between atoms: C_2  and  C_19
REMARK    3  A    between atoms: C_4  and  C_5
REMARK    4  A    between atoms: N_9  and  C_10
REMARK    5  A    between atoms: C_10  and  C_11
REMARK                            x       y       z     vdW  Elec       q    Type
REMARK                         _______ _______ _______ _____ _____    ______ ____
ROOT
ATOM      1  C   UNL A   1      45.057 -18.967 -36.021  0.00  0.00    -0.011 C 
ATOM      2  C   UNL A   1      45.726 -17.847 -36.335  0.00  0.00    -0.049 C 
ENDROOT
BRANCH   2   3
ATOM      3  C   UNL A   1      46.164 -17.517 -37.698  0.00  0.00    -0.009 A 
ATOM      4  C   UNL A   1      47.050 -16.474 -37.967  0.00  0.00    -0.052 A 
ATOM      5  C   UNL A   1      47.446 -16.221 -39.276  0.00  0.00    -0.045 A 
ATOM      6  C   UNL A   1      46.963 -17.020 -40.302  0.00  0.00    +0.005 A 
ATOM      7  N   UNL A   1      46.123 -18.048 -40.037  0.00  0.00    -0.348 N 
ATOM      8  C   UNL A   1      45.723 -18.302 -38.767  0.00  0.00    +0.012 A 
BRANCH   7   9
ATOM      9  C   UNL A   1      45.618 -18.890 -41.155  0.00  0.00    +0.049 C 
BRANCH   9  10
ATOM     10  C   UNL A   1      46.288 -20.242 -41.162  0.00  0.00    -0.014 A 
ATOM     11  C   UNL A   1      47.574 -20.355 -41.727  0.00  0.00    -0.056 A 
ATOM     12  C   UNL A   1      48.234 -21.584 -41.772  0.00  0.00    -0.061 A 
ATOM     13  C   UNL A   1      47.627 -22.721 -41.251  0.00  0.00    -0.061 A 
ATOM     14  C   UNL A   1      46.360 -22.631 -40.681  0.00  0.00    -0.047 A 
ATOM     15  C   UNL A   1      45.692 -21.402 -40.635  0.00  0.00    +0.023 A 
ATOM     16 BR   UNL A   1      43.968 -21.397 -39.836  0.00  0.00    -0.050 Br
ENDBRANCH   9  10
ENDBRANCH   7   9
ENDBRANCH   2   3
BRANCH   1  18
ATOM     17  O   UNL A   1      45.352 -19.148 -33.729  0.00  0.00    -0.284 OA
ATOM     18  C   UNL A   1      44.564 -19.337 -34.656  0.00  0.00    +0.221 C 
BRANCH  18  19
ATOM     19  C   UNL A   1      43.232 -19.870 -34.451  0.00  0.00    +0.176 A 
ATOM     20  C   UNL A   1      42.365 -19.696 -33.387  0.00  0.00    -0.005 A 
ATOM     21  C   UNL A   1      41.171 -20.393 -33.701  0.00  0.00    +0.022 A 
ATOM     22  C   UNL A   1      39.937 -20.609 -33.064  0.00  0.00    -0.037 A 
ATOM     23  C   UNL A   1      38.972 -21.376 -33.730  0.00  0.00    +0.019 A 
ATOM     24 BR   UNL A   1      37.301 -21.683 -32.894  0.00  0.00    -0.050 Br
ATOM     25  C   UNL A   1      39.213 -21.917 -34.995  0.00  0.00    -0.044 A 
ATOM     26  C   UNL A   1      40.437 -21.710 -35.643  0.00  0.00    -0.018 A 
ATOM     27  C   UNL A   1      41.380 -20.947 -34.959  0.00  0.00    +0.136 A 
ATOM     28  O   UNL A   1      42.624 -20.631 -35.415  0.00  0.00    -0.452 OA
ENDBRANCH  18  19
ENDBRANCH   1  18
TORSDOF 5
ENDMDL
MODEL 15
REMARK VINA RESULT:    -7.060      4.404      6.282
REMARK INTER + INTRA:          -9.958
REMARK INTER:                  -9.192
REMARK INTRA:                  -0.766
REMARK UNBOUND:                -0.835
REMARK  Name = cpd326.pdb
REMARK  5 active torsions:
REMARK  status: ('A' for Active; 'I' for Inactive)
REMARK    1  A    between atoms: C_2  and  C_3
REMARK    2  A    between atoms: C_2  and  C_19
REMARK    3  A    between atoms: C_4  and  C_5
REMARK    4  A    between atoms: N_9  and  C_10
REMARK    5  A    between atoms: C_10  and  C_11
REMARK                            x       y       z     vdW  Elec       q    Type
REMARK                         _______ _______ _______ _____ _____    ______ ____
ROOT
ATOM      1  C   UNL A   1      34.770 -39.540 -29.483  0.00  0.00    -0.011 C 
ATOM      2  C   UNL A   1      35.163 -40.172 -30.600  0.00  0.00    -0.049 C 
ENDROOT
BRANCH   2   3
ATOM      3  C   UNL A   1      34.294 -41.070 -31.373  0.00  0.00    -0.009 A 
ATOM      4  C   UNL A   1      33.242 -41.778 -30.791  0.00  0.00    -0.052 A 
ATOM      5  C   UNL A   1      32.439 -42.597 -31.577  0.00  0.00    -0.045 A 
ATOM      6  C   UNL A   1      32.687 -42.692 -32.939  0.00  0.00    +0.005 A 
ATOM      7  N   UNL A   1      33.691 -41.985 -33.507  0.00  0.00    -0.348 N 
ATOM      8  C   UNL A   1      34.486 -41.188 -32.753  0.00  0.00    +0.012 A 
BRANCH   7   9
ATOM      9  C   UNL A   1      33.937 -42.104 -34.970  0.00  0.00    +0.049 C 
BRANCH   9  10
ATOM     10  C   UNL A   1      33.927 -43.547 -35.407  0.00  0.00    -0.014 A 
ATOM     11  C   UNL A   1      34.958 -44.395 -34.957  0.00  0.00    -0.056 A 
ATOM     12  C   UNL A   1      35.007 -45.737 -35.341  0.00  0.00    -0.061 A 
ATOM     13  C   UNL A   1      34.025 -46.257 -36.176  0.00  0.00    -0.061 A 
ATOM     14  C   UNL A   1      32.992 -45.439 -36.627  0.00  0.00    -0.047 A 
ATOM     15  C   UNL A   1      32.940 -44.094 -36.247  0.00  0.00    +0.023 A 
ATOM     16 BR   UNL A   1      31.489 -43.072 -36.923  0.00  0.00    -0.050 Br
ENDBRANCH   9  10
ENDBRANCH   7   9
ENDBRANCH   2   3
BRANCH   1  18
ATOM     17  O   UNL A   1      35.187 -38.337 -27.545  0.00  0.00    -0.284 OA
ATOM     18  C   UNL A   1      35.605 -38.595 -28.675  0.00  0.00    +0.221 C 
BRANCH  18  19
ATOM     19  C   UNL A   1      36.836 -38.037 -29.196  0.00  0.00    +0.176 A 
ATOM     20  C   UNL A   1      38.146 -38.279 -28.819  0.00  0.00    -0.005 A 
ATOM     21  C   UNL A   1      38.976 -37.513 -29.675  0.00  0.00    +0.022 A 
ATOM     22  C   UNL A   1      40.361 -37.314 -29.816  0.00  0.00    -0.037 A 
ATOM     23  C   UNL A   1      40.807 -36.454 -30.828  0.00  0.00    +0.019 A 
ATOM     24 BR   UNL A   1      42.667 -36.168 -31.040  0.00  0.00    -0.050 Br
ATOM     25  C   UNL A   1      39.914 -35.806 -31.685  0.00  0.00    -0.044 A 
ATOM     26  C   UNL A   1      38.532 -35.995 -31.557  0.00  0.00    -0.018 A 
ATOM     27  C   UNL A   1      38.114 -36.852 -30.542  0.00  0.00    +0.136 A 
ATOM     28  O   UNL A   1      36.820 -37.167 -30.255  0.00  0.00    -0.452 OA
ENDBRANCH  18  19
ENDBRANCH   1  18
TORSDOF 5
ENDMDL
MODEL 16
REMARK VINA RESULT:    -7.024     17.537     20.755
REMARK INTER + INTRA:          -9.912
REMARK INTER:                  -8.966
REMARK INTRA:                  -0.946
REMARK UNBOUND:                -0.835
REMARK  Name = cpd326.pdb
REMARK  5 active torsions:
REMARK  status: ('A' for Active; 'I' for Inactive)
REMARK    1  A    between atoms: C_2  and  C_3
REMARK    2  A    between atoms: C_2  and  C_19
REMARK    3  A    between atoms: C_4  and  C_5
REMARK    4  A    between atoms: N_9  and  C_10
REMARK    5  A    between atoms: C_10  and  C_11
REMARK                            x       y       z     vdW  Elec       q    Type
REMARK                         _______ _______ _______ _____ _____    ______ ____
ROOT
ATOM      1  C   UNL A   1      42.721 -21.392 -39.353  0.00  0.00    -0.011 C 
ATOM      2  C   UNL A   1      43.237 -21.065 -40.548  0.00  0.00    -0.049 C 
ENDROOT
BRANCH   2   3
ATOM      3  C   UNL A   1      44.527 -20.383 -40.716  0.00  0.00    -0.009 A 
ATOM      4  C   UNL A   1      45.402 -20.683 -41.761  0.00  0.00    -0.052 A 
ATOM      5  C   UNL A   1      46.601 -19.990 -41.882  0.00  0.00    -0.045 A 
ATOM      6  C   UNL A   1      46.910 -18.994 -40.966  0.00  0.00    +0.005 A 
ATOM      7  N   UNL A   1      46.049 -18.686 -39.968  0.00  0.00    -0.348 N 
ATOM      8  C   UNL A   1      44.880 -19.358 -39.833  0.00  0.00    +0.012 A 
BRANCH   7   9
ATOM      9  C   UNL A   1      46.403 -17.615 -38.998  0.00  0.00    +0.049 C 
BRANCH   9  10
ATOM     10  C   UNL A   1      46.402 -18.140 -37.584  0.00  0.00    -0.014 A 
ATOM     11  C   UNL A   1      47.340 -19.130 -37.231  0.00  0.00    -0.056 A 
ATOM     12  C   UNL A   1      47.375 -19.660 -35.940  0.00  0.00    -0.061 A 
ATOM     13  C   UNL A   1      46.479 -19.210 -34.978  0.00  0.00    -0.061 A 
ATOM     14  C   UNL A   1      45.548 -18.227 -35.302  0.00  0.00    -0.047 A 
ATOM     15  C   UNL A   1      45.507 -17.693 -36.595  0.00  0.00    +0.023 A 
ATOM     16 BR   UNL A   1      44.195 -16.359 -36.926  0.00  0.00    -0.050 Br
ENDBRANCH   9  10
ENDBRANCH   7   9
ENDBRANCH   2   3
BRANCH   1  18
ATOM     17  O   UNL A   1      41.010 -22.781 -40.074  0.00  0.00    -0.284 OA
ATOM     18  C   UNL A   1      41.427 -22.111 -39.127  0.00  0.00    +0.221 C 
BRANCH  18  19
ATOM     19  C   UNL A   1      40.726 -22.030 -37.862  0.00  0.00    +0.176 A 
ATOM     20  C   UNL A   1      39.602 -21.298 -37.519  0.00  0.00    -0.005 A 
ATOM     21  C   UNL A   1      39.296 -21.607 -36.170  0.00  0.00    +0.022 A 
ATOM     22  C   UNL A   1      38.310 -21.214 -35.249  0.00  0.00    -0.037 A 
ATOM     23  C   UNL A   1      38.341 -21.774 -33.966  0.00  0.00    +0.019 A 
ATOM     24 BR   UNL A   1      37.025 -21.262 -32.704  0.00  0.00    -0.050 Br
ATOM     25  C   UNL A   1      39.318 -22.702 -33.595  0.00  0.00    -0.044 A 
ATOM     26  C   UNL A   1      40.306 -23.104 -34.502  0.00  0.00    -0.018 A 
ATOM     27  C   UNL A   1      40.255 -22.530 -35.771  0.00  0.00    +0.136 A 
ATOM     28  O   UNL A   1      41.119 -22.788 -36.791  0.00  0.00    -0.452 OA
ENDBRANCH  18  19
ENDBRANCH   1  18
TORSDOF 5
ENDMDL
MODEL 17
REMARK VINA RESULT:    -6.975      3.739      5.445
REMARK INTER + INTRA:          -9.848
REMARK INTER:                  -9.358
REMARK INTRA:                  -0.491
REMARK UNBOUND:                -0.835
REMARK  Name = cpd326.pdb
REMARK  5 active torsions:
REMARK  status: ('A' for Active; 'I' for Inactive)
REMARK    1  A    between atoms: C_2  and  C_3
REMARK    2  A    between atoms: C_2  and  C_19
REMARK    3  A    between atoms: C_4  and  C_5
REMARK    4  A    between atoms: N_9  and  C_10
REMARK    5  A    between atoms: C_10  and  C_11
REMARK                            x       y       z     vdW  Elec       q    Type
REMARK                         _______ _______ _______ _____ _____    ______ ____
ROOT
ATOM      1  C   UNL A   1      34.874 -37.373 -29.677  0.00  0.00    -0.011 C 
ATOM      2  C   UNL A   1      35.321 -38.100 -28.641  0.00  0.00    -0.049 C 
ENDROOT
BRANCH   2   3
ATOM      3  C   UNL A   1      34.596 -39.248 -28.080  0.00  0.00    -0.009 A 
ATOM      4  C   UNL A   1      34.857 -40.561 -28.471  0.00  0.00    -0.052 A 
ATOM      5  C   UNL A   1      34.153 -41.610 -27.890  0.00  0.00    -0.045 A 
ATOM      6  C   UNL A   1      33.203 -41.339 -26.915  0.00  0.00    +0.005 A 
ATOM      7  N   UNL A   1      32.969 -40.067 -26.518  0.00  0.00    -0.348 N 
ATOM      8  C   UNL A   1      33.643 -39.033 -27.080  0.00  0.00    +0.012 A 
BRANCH   7   9
ATOM      9  C   UNL A   1      31.946 -39.801 -25.471  0.00  0.00    +0.049 C 
BRANCH   9  10
ATOM     10  C   UNL A   1      32.444 -38.789 -24.469  0.00  0.00    -0.014 A 
ATOM     11  C   UNL A   1      32.044 -37.446 -24.611  0.00  0.00    -0.056 A 
ATOM     12  C   UNL A   1      32.484 -36.465 -23.720  0.00  0.00    -0.061 A 
ATOM     13  C   UNL A   1      33.327 -36.808 -22.669  0.00  0.00    -0.061 A 
ATOM     14  C   UNL A   1      33.729 -38.131 -22.505  0.00  0.00    -0.047 A 
ATOM     15  C   UNL A   1      33.292 -39.117 -23.395  0.00  0.00    +0.023 A 
ATOM     16 BR   UNL A   1      33.904 -40.887 -23.076  0.00  0.00    -0.050 Br
ENDBRANCH   9  10
ENDBRANCH   7   9
ENDBRANCH   2   3
BRANCH   1  18
ATOM     17  O   UNL A   1      34.901 -35.213 -30.516  0.00  0.00    -0.284 OA
ATOM     18  C   UNL A   1      35.585 -36.215 -30.304  0.00  0.00    +0.221 C 
BRANCH  18  19
ATOM     19  C   UNL A   1      36.998 -36.276 -30.622  0.00  0.00    +0.176 A 
ATOM     20  C   UNL A   1      38.048 -36.796 -29.886  0.00  0.00    -0.005 A 
ATOM     21  C   UNL A   1      39.221 -36.646 -30.666  0.00  0.00    +0.022 A 
ATOM     22  C   UNL A   1      40.582 -36.958 -30.504  0.00  0.00    -0.037 A 
ATOM     23  C   UNL A   1      41.463 -36.651 -31.549  0.00  0.00    +0.019 A 
ATOM     24 BR   UNL A   1      43.301 -37.059 -31.356  0.00  0.00    -0.050 Br
ATOM     25  C   UNL A   1      41.016 -36.051 -32.729  0.00  0.00    -0.044 A 
ATOM     26  C   UNL A   1      39.663 -35.735 -32.906  0.00  0.00    -0.018 A 
ATOM     27  C   UNL A   1      38.809 -36.049 -31.852  0.00  0.00    +0.136 A 
ATOM     28  O   UNL A   1      37.466 -35.825 -31.828  0.00  0.00    -0.452 OA
ENDBRANCH  18  19
ENDBRANCH   1  18
TORSDOF 5
ENDMDL
MODEL 18
REMARK VINA RESULT:    -6.909     17.331     20.333
REMARK INTER + INTRA:          -9.763
REMARK INTER:                  -8.916
REMARK INTRA:                  -0.847
REMARK UNBOUND:                -0.835
REMARK  Name = cpd326.pdb
REMARK  5 active torsions:
REMARK  status: ('A' for Active; 'I' for Inactive)
REMARK    1  A    between atoms: C_2  and  C_3
REMARK    2  A    between atoms: C_2  and  C_19
REMARK    3  A    between atoms: C_4  and  C_5
REMARK    4  A    between atoms: N_9  and  C_10
REMARK    5  A    between atoms: C_10  and  C_11
REMARK                            x       y       z     vdW  Elec       q    Type
REMARK                         _______ _______ _______ _____ _____    ______ ____
ROOT
ATOM      1  C   UNL A   1      40.712 -21.704 -34.933  0.00  0.00    -0.011 C 
ATOM      2  C   UNL A   1      40.798 -20.782 -35.905  0.00  0.00    -0.049 C 
ENDROOT
BRANCH   2   3
ATOM      3  C   UNL A   1      41.260 -21.078 -37.267  0.00  0.00    -0.009 A 
ATOM      4  C   UNL A   1      40.707 -22.100 -38.040  0.00  0.00    -0.052 A 
ATOM      5  C   UNL A   1      41.171 -22.321 -39.332  0.00  0.00    -0.045 A 
ATOM      6  C   UNL A   1      42.176 -21.512 -39.845  0.00  0.00    +0.005 A 
ATOM      7  N   UNL A   1      42.694 -20.505 -39.104  0.00  0.00    -0.348 N 
ATOM      8  C   UNL A   1      42.256 -20.282 -37.841  0.00  0.00    +0.012 A 
BRANCH   7   9
ATOM      9  C   UNL A   1      43.770 -19.651 -39.676  0.00  0.00    +0.049 C 
BRANCH   9  10
ATOM     10  C   UNL A   1      44.963 -20.480 -40.084  0.00  0.00    -0.014 A 
ATOM     11  C   UNL A   1      45.749 -21.072 -39.076  0.00  0.00    -0.056 A 
ATOM     12  C   UNL A   1      46.872 -21.838 -39.396  0.00  0.00    -0.061 A 
ATOM     13  C   UNL A   1      47.226 -22.032 -40.726  0.00  0.00    -0.061 A 
ATOM     14  C   UNL A   1      46.458 -21.463 -41.739  0.00  0.00    -0.047 A 
ATOM     15  C   UNL A   1      45.334 -20.692 -41.424  0.00  0.00    +0.023 A 
ATOM     16 BR   UNL A   1      44.362 -19.964 -42.884  0.00  0.00    -0.050 Br
ENDBRANCH   9  10
ENDBRANCH   7   9
ENDBRANCH   2   3
BRANCH   1  18
ATOM     17  O   UNL A   1      40.783 -22.104 -32.651  0.00  0.00    -0.284 OA
ATOM     18  C   UNL A   1      40.221 -21.462 -33.540  0.00  0.00    +0.221 C 
BRANCH  18  19
ATOM     19  C   UNL A   1      39.160 -20.515 -33.265  0.00  0.00    +0.176 A 
ATOM     20  C   UNL A   1      37.788 -20.700 -33.266  0.00  0.00    -0.005 A 
ATOM     21  C   UNL A   1      37.199 -19.468 -32.887  0.00  0.00    +0.022 A 
ATOM     22  C   UNL A   1      35.887 -18.997 -32.701  0.00  0.00    -0.037 A 
ATOM     23  C   UNL A   1      35.712 -17.667 -32.297  0.00  0.00    +0.019 A 
ATOM     24 BR   UNL A   1      33.956 -17.006 -32.040  0.00  0.00    -0.050 Br
ATOM     25  C   UNL A   1      36.800 -16.819 -32.076  0.00  0.00    -0.044 A 
ATOM     26  C   UNL A   1      38.112 -17.274 -32.256  0.00  0.00    -0.018 A 
ATOM     27  C   UNL A   1      38.260 -18.599 -32.661  0.00  0.00    +0.136 A 
ATOM     28  O   UNL A   1      39.446 -19.229 -32.888  0.00  0.00    -0.452 OA
ENDBRANCH  18  19
ENDBRANCH   1  18
TORSDOF 5
ENDMDL
MODEL 19
REMARK VINA RESULT:    -6.846     17.541     20.539
REMARK INTER + INTRA:          -9.681
REMARK INTER:                  -8.854
REMARK INTRA:                  -0.827
REMARK UNBOUND:                -0.835
REMARK  Name = cpd326.pdb
REMARK  5 active torsions:
REMARK  status: ('A' for Active; 'I' for Inactive)
REMARK    1  A    between atoms: C_2  and  C_3
REMARK    2  A    between atoms: C_2  and  C_19
REMARK    3  A    between atoms: C_4  and  C_5
REMARK    4  A    between atoms: N_9  and  C_10
REMARK    5  A    between atoms: C_10  and  C_11
REMARK                            x       y       z     vdW  Elec       q    Type
REMARK                         _______ _______ _______ _____ _____    ______ ____
ROOT
ATOM      1  C   UNL A   1      40.377 -21.571 -35.044  0.00  0.00    -0.011 C 
ATOM      2  C   UNL A   1      41.223 -20.792 -35.736  0.00  0.00    -0.049 C 
ENDROOT
BRANCH   2   3
ATOM      3  C   UNL A   1      41.533 -20.993 -37.158  0.00  0.00    -0.009 A 
ATOM      4  C   UNL A   1      40.762 -21.813 -37.984  0.00  0.00    -0.052 A 
ATOM      5  C   UNL A   1      41.091 -21.949 -39.328  0.00  0.00    -0.045 A 
ATOM      6  C   UNL A   1      42.179 -21.256 -39.838  0.00  0.00    +0.005 A 
ATOM      7  N   UNL A   1      42.911 -20.440 -39.043  0.00  0.00    -0.348 N 
ATOM      8  C   UNL A   1      42.606 -20.303 -37.729  0.00  0.00    +0.012 A 
BRANCH   7   9
ATOM      9  C   UNL A   1      44.073 -19.708 -39.614  0.00  0.00    +0.049 C 
BRANCH   9  10
ATOM     10  C   UNL A   1      45.075 -20.662 -40.214  0.00  0.00    -0.014 A 
ATOM     11  C   UNL A   1      45.878 -21.430 -39.348  0.00  0.00    -0.056 A 
ATOM     12  C   UNL A   1      46.831 -22.319 -39.849  0.00  0.00    -0.061 A 
ATOM     13  C   UNL A   1      46.997 -22.461 -41.222  0.00  0.00    -0.061 A 
ATOM     14  C   UNL A   1      46.209 -21.717 -42.097  0.00  0.00    -0.047 A 
ATOM     15  C   UNL A   1      45.254 -20.823 -41.600  0.00  0.00    +0.023 A 
ATOM     16 BR   UNL A   1      44.239 -19.860 -42.884  0.00  0.00    -0.050 Br
ENDBRANCH   9  10
ENDBRANCH   7   9
ENDBRANCH   2   3
BRANCH   1  18
ATOM     17  O   UNL A   1      40.122 -22.390 -32.891  0.00  0.00    -0.284 OA
ATOM     18  C   UNL A   1      40.006 -21.393 -33.604  0.00  0.00    +0.221 C 
BRANCH  18  19
ATOM     19  C   UNL A   1      39.554 -20.115 -33.091  0.00  0.00    +0.176 A 
ATOM     20  C   UNL A   1      40.281 -19.082 -32.526  0.00  0.00    -0.005 A 
ATOM     21  C   UNL A   1      39.369 -18.038 -32.233  0.00  0.00    +0.022 A 
ATOM     22  C   UNL A   1      39.459 -16.755 -31.667  0.00  0.00    -0.037 A 
ATOM     23  C   UNL A   1      38.287 -15.996 -31.554  0.00  0.00    +0.019 A 
ATOM     24 BR   UNL A   1      38.380 -14.264 -30.794  0.00  0.00    -0.050 Br
ATOM     25  C   UNL A   1      37.053 -16.486 -31.989  0.00  0.00    -0.044 A 
ATOM     26  C   UNL A   1      36.948 -17.762 -32.556  0.00  0.00    -0.018 A 
ATOM     27  C   UNL A   1      38.126 -18.497 -32.655  0.00  0.00    +0.136 A 
ATOM     28  O   UNL A   1      38.236 -19.751 -33.174  0.00  0.00    -0.452 OA
ENDBRANCH  18  19
ENDBRANCH   1  18
TORSDOF 5
ENDMDL
MODEL 20
REMARK VINA RESULT:    -6.822     18.001     21.127
REMARK INTER + INTRA:          -9.651
REMARK INTER:                  -9.254
REMARK INTRA:                  -0.398
REMARK UNBOUND:                -0.835
REMARK  Name = cpd326.pdb
REMARK  5 active torsions:
REMARK  status: ('A' for Active; 'I' for Inactive)
REMARK    1  A    between atoms: C_2  and  C_3
REMARK    2  A    between atoms: C_2  and  C_19
REMARK    3  A    between atoms: C_4  and  C_5
REMARK    4  A    between atoms: N_9  and  C_10
REMARK    5  A    between atoms: C_10  and  C_11
REMARK                            x       y       z     vdW  Elec       q    Type
REMARK                         _______ _______ _______ _____ _____    ______ ____
ROOT
ATOM      1  C   UNL A   1      44.736 -17.765 -34.168  0.00  0.00    -0.011 C 
ATOM      2  C   UNL A   1      45.035 -18.710 -35.074  0.00  0.00    -0.049 C 
ENDROOT
BRANCH   2   3
ATOM      3  C   UNL A   1      45.741 -18.434 -36.332  0.00  0.00    -0.009 A 
ATOM      4  C   UNL A   1      46.154 -17.151 -36.693  0.00  0.00    -0.052 A 
ATOM      5  C   UNL A   1      46.837 -16.952 -37.888  0.00  0.00    -0.045 A 
ATOM      6  C   UNL A   1      47.112 -18.039 -38.706  0.00  0.00    +0.005 A 
ATOM      7  N   UNL A   1      46.734 -19.287 -38.343  0.00  0.00    -0.348 N 
ATOM      8  C   UNL A   1      46.062 -19.495 -37.185  0.00  0.00    +0.012 A 
BRANCH   7   9
ATOM      9  C   UNL A   1      47.041 -20.436 -39.237  0.00  0.00    +0.049 C 
BRANCH   9  10
ATOM     10  C   UNL A   1      45.977 -20.602 -40.293  0.00  0.00    -0.014 A 
ATOM     11  C   UNL A   1      44.885 -19.711 -40.297  0.00  0.00    -0.056 A 
ATOM     12  C   UNL A   1      43.866 -19.827 -41.244  0.00  0.00    -0.061 A 
ATOM     13  C   UNL A   1      43.920 -20.828 -42.206  0.00  0.00    -0.061 A 
ATOM     14  C   UNL A   1      44.993 -21.715 -42.226  0.00  0.00    -0.047 A 
ATOM     15  C   UNL A   1      46.017 -21.605 -41.279  0.00  0.00    +0.023 A 
ATOM     16 BR   UNL A   1      47.430 -22.869 -41.399  0.00  0.00    -0.050 Br
ENDBRANCH   9  10
ENDBRANCH   7   9
ENDBRANCH   2   3
BRANCH   1  18
ATOM     17  O   UNL A   1      44.625 -17.570 -31.861  0.00  0.00    -0.284 OA
ATOM     18  C   UNL A   1      44.045 -17.997 -32.860  0.00  0.00    +0.221 C 
BRANCH  18  19
ATOM     19  C   UNL A   1      42.763 -18.669 -32.789  0.00  0.00    +0.176 A 
ATOM     20  C   UNL A   1      41.485 -18.142 -32.835  0.00  0.00    -0.005 A 
ATOM     21  C   UNL A   1      40.580 -19.231 -32.772  0.00  0.00    +0.022 A 
ATOM     22  C   UNL A   1      39.181 -19.377 -32.774  0.00  0.00    -0.037 A 
ATOM     23  C   UNL A   1      38.650 -20.671 -32.706  0.00  0.00    +0.019 A 
ATOM     24 BR   UNL A   1      36.770 -20.896 -32.706  0.00  0.00    -0.050 Br
ATOM     25  C   UNL A   1      39.473 -21.798 -32.641  0.00  0.00    -0.044 A 
ATOM     26  C   UNL A   1      40.867 -21.669 -32.639  0.00  0.00    -0.018 A 
ATOM     27  C   UNL A   1      41.371 -20.372 -32.704  0.00  0.00    +0.136 A 
ATOM     28  O   UNL A   1      42.690 -20.035 -32.716  0.00  0.00    -0.452 OA
ENDBRANCH  18  19
ENDBRANCH   1  18
TORSDOF 5
ENDMDL
